
This summary information was generated by ElastoDyn on 07-May-2025 at 19:11:43.


Turbine features:

            Upwind, 2-bladed rotor with rigid hub.
            The model has 6 of 22 DOFs active (enabled) at start-up.
 Enabled    Platform horizontal surge translation DOF 
 Enabled    Platform horizontal sway translation DOF 
 Enabled    Platform vertical heave translation DOF 
 Enabled    Platform roll tilt rotation DOF 
 Enabled    Platform pitch tilt rotation DOF 
 Enabled    Platform yaw rotation DOF 
 Disabled   1st tower fore-aft bending mode DOF 
 Disabled   1st tower side-to-side bending mode DOF 
 Disabled   2nd tower fore-aft bending mode DOF 
 Disabled   2nd tower side-to-side bending mode DOF 
 Disabled   Nacelle yaw DOF 
 Disabled   Rotor-furl DOF 
 Disabled   Variable speed generator DOF 
 Disabled   Drivetrain rotational-flexibility DOF 
 Disabled   Tail-furl DOF 
 Disabled   1st flapwise bending-mode DOF of blade 1 
 Disabled   1st edgewise bending-mode DOF of blade 1 
 Disabled   2nd flapwise bending-mode DOF of blade 1 
 Disabled   1st flapwise bending-mode DOF of blade 2 
 Disabled   1st edgewise bending-mode DOF of blade 2 
 Disabled   2nd flapwise bending-mode DOF of blade 2 
 Disabled   Hub teetering DOF 


Time steps:

    Structural            (s)        0.01000000


Some calculated parameters:

    Hub-Height            (m)           -25.200
    Flexible Tower Length (m)           -15.000
    Flexible Blade Length (m)             9.000


Rotor mass properties:

    Rotor Mass            (kg)        12655.716
    Rotor Inertia         (kg-m^2)   232552.219
                                        Blade 1      Blade 2
                                        -------      -------
    Mass                  (kg)         6257.858     6257.858
    Second Mass Moment    (kg-m^2)    75372.164    75372.164
    First Mass Moment     (kg-m)      17304.873    17304.873
    Center of Mass        (m)             2.765        2.765


Additional mass properties:

    Tower-top Mass        (kg)        52755.715
    Tower Mass            (kg)         9785.101
    Platform Mass         (kg)      2525214.000
    Mass Incl. Platform   (kg)      2587754.750


Interpolated tower properties:

Node  TwFract   HNodes  DHNodes  TMassDen    FAStiff    SSStiff
 (-)      (-)      (m)      (m)    (kg/m)     (Nm^2)     (Nm^2)
   1    0.250   -3.750   -7.500   652.340  5.620E+09  5.660E+08
   2    0.750  -11.250   -7.500   652.340  5.620E+09  5.660E+08


Interpolated blade 1 properties:

Node  BlFract   RNodes  DRNodes PitchAxis  StrcTwst  BMassDen    FlpStff    EdgStff
 (-)      (-)      (m)      (m)       (-)     (deg)    (kg/m)     (Nm^2)     (Nm^2)
   1    0.062    1.562    1.125     0.442    12.860  1636.650  1.590E+09  1.115E+09
   2    0.188    2.688    1.125     0.320    12.035  1074.450  3.865E+08  1.125E+09
   3    0.312    3.812    1.125     0.320     8.452   952.497  2.303E+08  8.193E+08
   4    0.438    4.938    1.125     0.320     6.398   738.608  1.402E+08  4.999E+08
   5    0.562    6.062    1.125     0.320     5.088   521.360  7.161E+07  2.638E+08
   6    0.688    7.188    1.125     0.320     4.116   337.046  3.004E+07  1.177E+08
   7    0.812    8.312    1.125     0.320     3.268   187.723  7.428E+06  4.231E+07
   8    0.938    9.438    1.125     0.320     2.399   114.205  1.688E+06  1.495E+07


Interpolated blade 2 properties:

Node  BlFract   RNodes  DRNodes PitchAxis  StrcTwst  BMassDen    FlpStff    EdgStff
 (-)      (-)      (m)      (m)       (-)     (deg)    (kg/m)     (Nm^2)     (Nm^2)
   1    0.062    1.562    1.125     0.442    12.860  1636.650  1.590E+09  1.115E+09
   2    0.188    2.688    1.125     0.320    12.035  1074.450  3.865E+08  1.125E+09
   3    0.312    3.812    1.125     0.320     8.452   952.497  2.303E+08  8.193E+08
   4    0.438    4.938    1.125     0.320     6.398   738.608  1.402E+08  4.999E+08
   5    0.562    6.062    1.125     0.320     5.088   521.360  7.161E+07  2.638E+08
   6    0.688    7.188    1.125     0.320     4.116   337.046  3.004E+07  1.177E+08
   7    0.812    8.312    1.125     0.320     3.268   187.723  7.428E+06  4.231E+07
   8    0.938    9.438    1.125     0.320     2.399   114.205  1.688E+06  1.495E+07


Requested Outputs:


 Col   Parameter            Units               
 ---   ---------------      ---------------     
   0   Time                 (s)                 
   1   PtfmSurge            (m)                 
   2   PtfmSway             (m)                 
   3   PtfmHeave            (m)                 
   4   PtfmRoll             (deg)               
   5   PtfmPitch            (deg)               
   6   PtfmYaw              (deg)               
   7   TwrTpTDxi            (m)                 
   8   TwrTpTDyi            (m)                 
   9   TwrTpTDzi            (m)                 
  10   OoPDefl1             (m)                 


  Requested Output Channels at each blade station:
 Col   Parameter            Units               
 ---   ---------------      ---------------     
