
This summary information was generated by AeroDyn on 07-May-2025 at 19:12:10.

======  General Options  ============================================================================
            1  WakeMod        - Type of wake/induction model: Blade-Element/Momentum Theory
            1  TwrPotent      - Type of tower influence on wind based on potential flow around the tower: baseline potential flow
            0  TwrShadow      - Type of tower influence on wind based on downstream tower shadow: none
            T  TwrAero        - Tower aerodynamic loads: Tower aero calculated without VIV
            T  CavitCheck     - Perform cavitation check? Yes
            T  Buoyancy       - Include buoyancy effects? Yes
            F  NacelleDrag    - Include NacelleDrag effects? No
======  Blade-Element/Momentum Theory Options  ======================================================
            1  Skew_Mod       - Skewed-wake correction model: active
            T  TipLoss        - Use the Prandtl tip-loss model? Yes
            T  HubLoss        - Use the Prandtl hub-loss model? Yes
            T  TanInd         - Include tangential induction in BEMT calculations? Yes
            T  AIDrag         - Include the drag term in the axial-induction calculation? Yes
            T  TIDrag         - Include the drag term in the tangential-induction calculation? Yes
   5.0000E-05  IndToler       - Convergence tolerance for BEM induction factors (radians)
            2  DBEMT_Mod      - Type of dynamic BEMT (DBEMT) model: dynamic - time-dependent tau1
======================== Unsteady Airfoil Aerodynamics Options  =====================================
            0  UA_Mod         - Unsteady Aero Model: none (quasi-steady airfoil aerodynamics)
            T  FLookup        - Use a lookup for f'? Yes
            3  IntegrationMet - Integration method for continuous UA models: fourth-order Adams-Bashforth-Moulton Method (ABM4)
      0.00000  UAStartRad     - Starting blade radius fraction for UA models (-)
      1.00000  UAEndRad       - Ending blade radius fraction for UA models (-)
======  Outputs  ====================================================================================
            9  NBlOuts        - Number of blade nodes selected for output
           32  NumBlNds       - Number of blade nodes in the analysis
               Blade nodes selected for output:  Output node  Analysis node
                                                 -----------  -------------
                                                           1              1
                                                           2              5
                                                           3              9
                                                           4             13
                                                           5             17
                                                           6             21
                                                           7             25
                                                           8             27
                                                           9             30
            4  NTwOuts        - Number of tower nodes selected for output
            4  NumTwrNds      - Number of tower nodes in the analysis
               Tower nodes selected for output:  Output node  Analysis node
                                                 -----------  -------------
                                                           1              1
                                                           2              2
                                                           3              3
                                                           4              4

               Requested Output Channels:
                Col   Parameter            Units               
                ---   ---------------      ---------------     
                  0   Time                 (s)                 
                  1   TwN1Fbx              (N/m)               
                  2   TwN3Fby              (N/m)               
                  3   TwN4Fbz              (N/m)               
                  4   TwN1Mbx              (N-m/m)             
                  5   TwN2Mby              (N-m/m)             
                  6   TwN3Mbz              (N-m/m)             
                  7   B2N4Fbn              (N/m)               
                  8   B1N7Fbt              (N/m)               
                  9   B2N8Fbs              (N/m)               
                 10   B1N2Mbn              (N-m/m)             
                 11   B2N3Mbt              (N-m/m)             
                 12   B1N6Mbs              (N-m/m)             
                 13   B1FldFz              (N)                 
                 14   B2FldMx              (N-m)               
                 15   HbFbx                (N)                 
                 16   HbFby                (N)                 
                 17   HbFbz                (N)                 
                 18   HbMbx                (N-m)               
                 19   HbMby                (N-m)               
                 20   HbMbz                (N-m)               
                 21   NcFbx                (N)                 
                 22   NcFby                (N)                 
                 23   NcFbz                (N)                 
                 24   NcMbx                (N-m)               
                 25   NcMby                (N-m)               
                 26   NcMbz                (N-m)               
                 27   RtFldFxh             (N)                 
                 28   RtFldFyh             (N)                 
                 29   RtFldFzg             (N)                 
                 30   RtFldMxh             (N-m)               
                 31   RtFldMyg             (N-m)               
                 32   RtFldMzh             (N-m)               
                 33   B1N3SigCr            (-)                 
                 34   B2N5SigCr            (-)                 
                 35   B1N2SgCav            (-)                 
                 36   B2N6SgCav            (-)                 


               Requested Output Channels at each blade station:
                Col   Parameter            Units               
                ---   ---------------      ---------------     


Buoyancy parameters:

Hub volume (m^3):           7.200
Nacelle volume (m^3):      38.600
Total blade volume (m^3):   5.131
Tower volume (m^3):         1.247


======  Blade definitions  ==========================================================================

   -----  Blade  1 -----------------------------------------------------------------------------------------------------------
                BlSpn              BlCrvAC              BlSwpAC             BlCrvAng              BlTwist              BlChord
                  (m)                  (m)                  (m)                (deg)                (deg)                  (m)
             --------             --------              -------             --------             --------             --------
             0.000000             0.000000             0.000000               0.0000              12.8600             0.800000
             0.150000             0.000000             0.000000               0.0000              12.8600             0.800000
             0.450000             0.000000             0.000000               0.0000              12.8600             0.894000
             0.750000             0.000000             0.000000               0.0000              12.8600             1.118000
             1.050000             0.000000             0.000000               0.0000              12.8600             1.386000
             1.350000             0.000000             0.000000               0.0000              12.8600             1.610000
             1.650000             0.000000             0.000000               0.0000              12.8600             1.704000
             1.950000             0.000000             0.000000               0.0000              11.5400             1.662000
             2.250000             0.000000             0.000000               0.0000              10.4400             1.619000
             2.550000             0.000000             0.000000               0.0000               9.5000             1.577000
             2.850000             0.000000             0.000000               0.0000               8.7100             1.534000
             3.150000             0.000000             0.000000               0.0000               8.0200             1.492000
             3.450000             0.000000             0.000000               0.0000               7.4300             1.450000
             3.750000             0.000000             0.000000               0.0000               6.9100             1.407000
             4.050000             0.000000             0.000000               0.0000               6.4500             1.365000
             4.350000             0.000000             0.000000               0.0000               6.0400             1.322000
             4.650000             0.000000             0.000000               0.0000               5.6800             1.279000
             4.950000             0.000000             0.000000               0.0000               5.3500             1.235000
             5.250000             0.000000             0.000000               0.0000               5.0500             1.192000
             5.550000             0.000000             0.000000               0.0000               4.7700             1.148000
             5.850000             0.000000             0.000000               0.0000               4.5100             1.103000
             6.150000             0.000000             0.000000               0.0000               4.2600             1.058000
             6.450000             0.000000             0.000000               0.0000               4.0300             1.012000
             6.750000             0.000000             0.000000               0.0000               3.8000             0.966000
             7.050000             0.000000             0.000000               0.0000               3.5700             0.920000
             7.350000             0.000000             0.000000               0.0000               3.3500             0.872000
             7.650000             0.000000             0.000000               0.0000               3.1300             0.824000
             7.950000             0.000000             0.000000               0.0000               2.9000             0.776000
             8.250000             0.000000             0.000000               0.0000               2.6700             0.726000
             8.550000             0.000000             0.000000               0.0000               2.4300             0.676000
             8.850000             0.000000             0.000000               0.0000               2.1800             0.626000
             9.000000             0.000000             0.000000               0.0000               2.1800             0.626000

   -----  Blade  2 -----------------------------------------------------------------------------------------------------------
                BlSpn              BlCrvAC              BlSwpAC             BlCrvAng              BlTwist              BlChord
                  (m)                  (m)                  (m)                (deg)                (deg)                  (m)
             --------             --------              -------             --------             --------             --------
             0.000000             0.000000             0.000000               0.0000              12.8600             0.800000
             0.150000             0.000000             0.000000               0.0000              12.8600             0.800000
             0.450000             0.000000             0.000000               0.0000              12.8600             0.894000
             0.750000             0.000000             0.000000               0.0000              12.8600             1.118000
             1.050000             0.000000             0.000000               0.0000              12.8600             1.386000
             1.350000             0.000000             0.000000               0.0000              12.8600             1.610000
             1.650000             0.000000             0.000000               0.0000              12.8600             1.704000
             1.950000             0.000000             0.000000               0.0000              11.5400             1.662000
             2.250000             0.000000             0.000000               0.0000              10.4400             1.619000
             2.550000             0.000000             0.000000               0.0000               9.5000             1.577000
             2.850000             0.000000             0.000000               0.0000               8.7100             1.534000
             3.150000             0.000000             0.000000               0.0000               8.0200             1.492000
             3.450000             0.000000             0.000000               0.0000               7.4300             1.450000
             3.750000             0.000000             0.000000               0.0000               6.9100             1.407000
             4.050000             0.000000             0.000000               0.0000               6.4500             1.365000
             4.350000             0.000000             0.000000               0.0000               6.0400             1.322000
             4.650000             0.000000             0.000000               0.0000               5.6800             1.279000
             4.950000             0.000000             0.000000               0.0000               5.3500             1.235000
             5.250000             0.000000             0.000000               0.0000               5.0500             1.192000
             5.550000             0.000000             0.000000               0.0000               4.7700             1.148000
             5.850000             0.000000             0.000000               0.0000               4.5100             1.103000
             6.150000             0.000000             0.000000               0.0000               4.2600             1.058000
             6.450000             0.000000             0.000000               0.0000               4.0300             1.012000
             6.750000             0.000000             0.000000               0.0000               3.8000             0.966000
             7.050000             0.000000             0.000000               0.0000               3.5700             0.920000
             7.350000             0.000000             0.000000               0.0000               3.3500             0.872000
             7.650000             0.000000             0.000000               0.0000               3.1300             0.824000
             7.950000             0.000000             0.000000               0.0000               2.9000             0.776000
             8.250000             0.000000             0.000000               0.0000               2.6700             0.726000
             8.550000             0.000000             0.000000               0.0000               2.4300             0.676000
             8.850000             0.000000             0.000000               0.0000               2.1800             0.626000
             9.000000             0.000000             0.000000               0.0000               2.1800             0.626000
