
This summary file was generated by HydroDyn  on 07-May-2025 at 19:12:10.

WAMIT Model - Body    1
------------------
  Displaced volume (m^3)                 :     2.671850E+03
  X-offset of the center of buoyancy (m) :     0.000000E+00
  Y-offset of the center of buoyancy (m) :     0.000000E+00


  Buoyancy loads from members modelled with WAMIT, summed about ( 0.0, 0.0, 0.0 )
                                BuoyFxi               BuoyFyi               BuoyFzi               BuoyMxi               BuoyMyi               BuoyMzi 
                                  (N)                   (N)                   (N)                  (N-m)                 (N-m)                 (N-m)  
  External:                 0.000000E+00          0.000000E+00          2.685695E+07          0.000000E+00         -0.000000E+00          0.000000E+00



Strip-Theory Volume Calculations(m^3)
-------------------------------------
  Structure Volume     :    0.00000E+00
  Submerged Volume     :    0.00000E+00
  Marine Growth Volume :    0.00000E+00
  Ballasted Volume     :    0.00000E+00
              NOTE: Structure, Submerged and Marine Growth volumes are based on members not modelled with WAMIT
                      Ballasted volume is computed from all members which are marked as filled in the HydroDyn input file, regardless of PropPot flag



Total Buoyancy loads summed about ( 0.0, 0.0, 0.0 )
---------------------------------------------------
                                BuoyFxi               BuoyFyi               BuoyFzi               BuoyMxi               BuoyMyi               BuoyMzi 
                                  (N)                   (N)                   (N)                  (N-m)                 (N-m)                 (N-m)  
 External:                  0.000000E+00          0.000000E+00          0.000000E+00          0.000000E+00          0.000000E+00          0.000000E+00
 Internal:                  0.000000E+00          0.000000E+00          0.000000E+00          0.000000E+00          0.000000E+00          0.000000E+00
 Total   :                  0.000000E+00          0.000000E+00          0.000000E+00          0.000000E+00          0.000000E+00          0.000000E+00
              NOTE: External buoyancy is based on members not modelled with WAMIT
                      Internal buoyancy is computed from all members which are marked as filled in the HydroDyn input file, regardless of PropPot flag
                    Total buoyancy does not include WAMIT-modelled buoyancy contribution



Weight loads about ( 0.0, 0.0, 0.0 )
------------------------------------
                                 MGFxi                 MGFyi                 MGFzi                 MGMxi                 MGMyi                 MGMzi  
                                  (N)                   (N)                   (N)                  (N-m)                 (N-m)                 (N-m)  
 Marine Growth:             0.000000E+00          0.000000E+00          0.000000E+00          0.000000E+00          0.000000E+00          0.000000E+00



Nodes (first [  33 ] are joints, remainder are internal nodes)


   i      MbrIndx      Nxi         Nyi         Nzi           R          t          tMG        MGDens     PropPot    FilledFlag  FilledMass      Cd          Ca          Cp          Cb         AxCd        AxCa        AxCp        JAxCd       JAxCa       JAxCp  
  (-)       (-)        (m)         (m)         (m)          (m)        (m)         (m)       (kg/m^3)      (-)         (-)        (kg)          (-)         (-)         (-)         (-)         (-)         (-)         (-)         (-)         (-)         (-)   
     1      -          28.0000      0.0000    -10.0000      -           -        0.000E+00   0.000E+00      -           -           -           -           -           -           -           -           -           -        0.000E+00   0.000E+00   0.000E+00
     2      -          28.0000      0.0000      6.0000      -           -        0.000E+00   0.000E+00      -           -           -           -           -           -           -           -           -           -        0.000E+00   0.000E+00   0.000E+00
     3      -         -28.0000      0.0000    -10.0000      -           -        0.000E+00   0.000E+00      -           -           -           -           -           -           -           -           -           -        0.000E+00   0.000E+00   0.000E+00
     4      -         -28.0000      0.0000      6.0000      -           -        0.000E+00   0.000E+00      -           -           -           -           -           -           -           -           -           -        0.000E+00   0.000E+00   0.000E+00
     5      -           0.0000    -12.0000    -10.0000      -           -        0.000E+00   0.000E+00      -           -           -           -           -           -           -           -           -           -        0.000E+00   0.000E+00   0.000E+00
     6      -           0.0000    -12.0000      6.0000      -           -        0.000E+00   0.000E+00      -           -           -           -           -           -           -           -           -           -        0.000E+00   0.000E+00   0.000E+00
     7      -           0.0000     12.0000    -10.0000      -           -        0.000E+00   0.000E+00      -           -           -           -           -           -           -           -           -           -        0.000E+00   0.000E+00   0.000E+00
     8      -           0.0000     12.0000      6.0000      -           -        0.000E+00   0.000E+00      -           -           -           -           -           -           -           -           -           -        0.000E+00   0.000E+00   0.000E+00
     9      -           3.6766     10.4243      4.5000      -           -        0.000E+00   0.000E+00      -           -           -           -           -           -           -           -           -           -        0.000E+00   0.000E+00   0.000E+00
    10      -          24.3234      1.5757      4.5000      -           -        0.000E+00   0.000E+00      -           -           -           -           -           -           -           -           -           -        0.000E+00   0.000E+00   0.000E+00
    11      -           3.6766    -10.4243      4.5000      -           -        0.000E+00   0.000E+00      -           -           -           -           -           -           -           -           -           -        0.000E+00   0.000E+00   0.000E+00
    12      -          24.3234     -1.5757      4.5000      -           -        0.000E+00   0.000E+00      -           -           -           -           -           -           -           -           -           -        0.000E+00   0.000E+00   0.000E+00
    13      -          -3.6766     10.4243      4.5000      -           -        0.000E+00   0.000E+00      -           -           -           -           -           -           -           -           -           -        0.000E+00   0.000E+00   0.000E+00
    14      -         -24.3234      1.5757      4.5000      -           -        0.000E+00   0.000E+00      -           -           -           -           -           -           -           -           -           -        0.000E+00   0.000E+00   0.000E+00
    15      -          -3.6766    -10.4243      4.5000      -           -        0.000E+00   0.000E+00      -           -           -           -           -           -           -           -           -           -        0.000E+00   0.000E+00   0.000E+00
    16      -         -24.3234     -1.5757      4.5000      -           -        0.000E+00   0.000E+00      -           -           -           -           -           -           -           -           -           -        0.000E+00   0.000E+00   0.000E+00
    17      -           3.6766     10.4243     -8.5000      -           -        0.000E+00   0.000E+00      -           -           -           -           -           -           -           -           -           -        0.000E+00   0.000E+00   0.000E+00
    18      -          24.3234      1.5757     -8.5000      -           -        0.000E+00   0.000E+00      -           -           -           -           -           -           -           -           -           -        0.000E+00   0.000E+00   0.000E+00
    19      -           3.6766    -10.4243     -8.5000      -           -        0.000E+00   0.000E+00      -           -           -           -           -           -           -           -           -           -        0.000E+00   0.000E+00   0.000E+00
    20      -          24.3234     -1.5757     -8.5000      -           -        0.000E+00   0.000E+00      -           -           -           -           -           -           -           -           -           -        0.000E+00   0.000E+00   0.000E+00
    21      -          -3.6766     10.4243     -8.5000      -           -        0.000E+00   0.000E+00      -           -           -           -           -           -           -           -           -           -        0.000E+00   0.000E+00   0.000E+00
    22      -         -24.3234      1.5757     -8.5000      -           -        0.000E+00   0.000E+00      -           -           -           -           -           -           -           -           -           -        0.000E+00   0.000E+00   0.000E+00
    23      -          -3.6766    -10.4243     -8.5000      -           -        0.000E+00   0.000E+00      -           -           -           -           -           -           -           -           -           -        0.000E+00   0.000E+00   0.000E+00
    24      -         -24.3234     -1.5757     -8.5000      -           -        0.000E+00   0.000E+00      -           -           -           -           -           -           -           -           -           -        0.000E+00   0.000E+00   0.000E+00
    25      -           0.0000     -8.0000      4.5000      -           -        0.000E+00   0.000E+00      -           -           -           -           -           -           -           -           -           -        0.000E+00   0.000E+00   0.000E+00
    26      -           0.0000      8.0000      4.5000      -           -        0.000E+00   0.000E+00      -           -           -           -           -           -           -           -           -           -        0.000E+00   0.000E+00   0.000E+00
    27      -           0.0000     -8.0000     -8.5000      -           -        0.000E+00   0.000E+00      -           -           -           -           -           -           -           -           -           -        0.000E+00   0.000E+00   0.000E+00
    28      -           0.0000      8.0000     -8.5000      -           -        0.000E+00   0.000E+00      -           -           -           -           -           -           -           -           -           -        0.000E+00   0.000E+00   0.000E+00
    29      -           0.0000      0.0000     -8.5000      -           -        0.000E+00   0.000E+00      -           -           -           -           -           -           -           -           -           -        0.000E+00   0.000E+00   0.000E+00
    30      -          28.0000      0.0000    -10.5000      -           -        0.000E+00   0.000E+00      -           -           -           -           -           -           -           -           -           -        1.000E+00   1.000E+00   1.000E+00
    31      -         -28.0000      0.0000    -10.5000      -           -        0.000E+00   0.000E+00      -           -           -           -           -           -           -           -           -           -        1.000E+00   1.000E+00   1.000E+00
    32      -           0.0000    -12.0000    -10.5000      -           -        0.000E+00   0.000E+00      -           -           -           -           -           -           -           -           -           -        1.000E+00   1.000E+00   1.000E+00
    33      -           0.0000     12.0000    -10.5000      -           -        0.000E+00   0.000E+00      -           -           -           -           -           -           -           -           -           -        1.000E+00   1.000E+00   1.000E+00
    34           0     28.0000      0.0000     -9.9000   4.000E+00   2.000E-02   0.000E+00   0.000E+00           T           F   0.000E+00   1.200E+00   1.000E+00   1.000E+00   1.000E+00   0.000E+00   0.000E+00   1.000E+00         -           -           -  
    35           0     28.0000      0.0000     -9.8000   4.000E+00   2.000E-02   0.000E+00   0.000E+00           T           F   0.000E+00   1.200E+00   1.000E+00   1.000E+00   1.000E+00   0.000E+00   0.000E+00   1.000E+00         -           -           -  
    36           0     28.0000      0.0000     -9.7000   4.000E+00   2.000E-02   0.000E+00   0.000E+00           T           F   0.000E+00   1.200E+00   1.000E+00   1.000E+00   1.000E+00   0.000E+00   0.000E+00   1.000E+00         -           -           -  
    37           0     28.0000      0.0000     -9.6000   4.000E+00   2.000E-02   0.000E+00   0.000E+00           T           F   0.000E+00   1.200E+00   1.000E+00   1.000E+00   1.000E+00   0.000E+00   0.000E+00   1.000E+00         -           -           -  
    38           0     28.0000      0.0000     -9.5000   4.000E+00   2.000E-02   0.000E+00   0.000E+00           T           F   0.000E+00   1.200E+00   1.000E+00   1.000E+00   1.000E+00   0.000E+00   0.000E+00   1.000E+00         -           -           -  
    39           0     28.0000      0.0000     -9.4000   4.000E+00   2.000E-02   0.000E+00   0.000E+00           T           F   0.000E+00   1.200E+00   1.000E+00   1.000E+00   1.000E+00   0.000E+00   0.000E+00   1.000E+00         -           -           -  
    40           0     28.0000      0.0000     -9.3000   4.000E+00   2.000E-02   0.000E+00   0.000E+00           T           F   0.000E+00   1.200E+00   1.000E+00   1.000E+00   1.000E+00   0.000E+00   0.000E+00   1.000E+00         -           -           -  
    41           0     28.0000      0.0000     -9.2000   4.000E+00   2.000E-02   0.000E+00   0.000E+00           T           F   0.000E+00   1.200E+00   1.000E+00   1.000E+00   1.000E+00   0.000E+00   0.000E+00   1.000E+00         -           -           -  
    42           0     28.0000      0.0000     -9.1000   4.000E+00   2.000E-02   0.000E+00   0.000E+00           T           F   0.000E+00   1.200E+00   1.000E+00   1.000E+00   1.000E+00   0.000E+00   0.000E+00   1.000E+00         -           -           -  
    43           0     28.0000      0.0000     -9.0000   4.000E+00   2.000E-02   0.000E+00   0.000E+00           T           F   0.000E+00   1.200E+00   1.000E+00   1.000E+00   1.000E+00   0.000E+00   0.000E+00   1.000E+00         -           -           -  
    44           0     28.0000      0.0000     -8.9000   4.000E+00   2.000E-02   0.000E+00   0.000E+00           T           F   0.000E+00   1.200E+00   1.000E+00   1.000E+00   1.000E+00   0.000E+00   0.000E+00   1.000E+00         -           -           -  
    45           0     28.0000      0.0000     -8.8000   4.000E+00   2.000E-02   0.000E+00   0.000E+00           T           F   0.000E+00   1.200E+00   1.000E+00   1.000E+00   1.000E+00   0.000E+00   0.000E+00   1.000E+00         -           -           -  
    46           0     28.0000      0.0000     -8.7000   4.000E+00   2.000E-02   0.000E+00   0.000E+00           T           F   0.000E+00   1.200E+00   1.000E+00   1.000E+00   1.000E+00   0.000E+00   0.000E+00   1.000E+00         -           -           -  
    47           0     28.0000      0.0000     -8.6000   4.000E+00   2.000E-02   0.000E+00   0.000E+00           T           F   0.000E+00   1.200E+00   1.000E+00   1.000E+00   1.000E+00   0.000E+00   0.000E+00   1.000E+00         -           -           -  
    48           0     28.0000      0.0000     -8.5000   4.000E+00   2.000E-02   0.000E+00   0.000E+00           T           F   0.000E+00   1.200E+00   1.000E+00   1.000E+00   1.000E+00   0.000E+00   0.000E+00   1.000E+00         -           -           -  
    49           0     28.0000      0.0000     -8.4000   4.000E+00   2.000E-02   0.000E+00   0.000E+00           T           F   0.000E+00   1.200E+00   1.000E+00   1.000E+00   1.000E+00   0.000E+00   0.000E+00   1.000E+00         -           -           -  
    50           0     28.0000      0.0000     -8.3000   4.000E+00   2.000E-02   0.000E+00   0.000E+00           T           F   0.000E+00   1.200E+00   1.000E+00   1.000E+00   1.000E+00   0.000E+00   0.000E+00   1.000E+00         -           -           -  
    51           0     28.0000      0.0000     -8.2000   4.000E+00   2.000E-02   0.000E+00   0.000E+00           T           F   0.000E+00   1.200E+00   1.000E+00   1.000E+00   1.000E+00   0.000E+00   0.000E+00   1.000E+00         -           -           -  
    52           0     28.0000      0.0000     -8.1000   4.000E+00   2.000E-02   0.000E+00   0.000E+00           T           F   0.000E+00   1.200E+00   1.000E+00   1.000E+00   1.000E+00   0.000E+00   0.000E+00   1.000E+00         -           -           -  
    53           0     28.0000      0.0000     -8.0000   4.000E+00   2.000E-02   0.000E+00   0.000E+00           T           F   0.000E+00   1.200E+00   1.000E+00   1.000E+00   1.000E+00   0.000E+00   0.000E+00   1.000E+00         -           -           -  
    54           0     28.0000      0.0000     -7.9000   4.000E+00   2.000E-02   0.000E+00   0.000E+00           T           F   0.000E+00   1.200E+00   1.000E+00   1.000E+00   1.000E+00   0.000E+00   0.000E+00   1.000E+00         -           -           -  
    55           0     28.0000      0.0000     -7.8000   4.000E+00   2.000E-02   0.000E+00   0.000E+00           T           F   0.000E+00   1.200E+00   1.000E+00   1.000E+00   1.000E+00   0.000E+00   0.000E+00   1.000E+00         -           -           -  
    56           0     28.0000      0.0000     -7.7000   4.000E+00   2.000E-02   0.000E+00   0.000E+00           T           F   0.000E+00   1.200E+00   1.000E+00   1.000E+00   1.000E+00   0.000E+00   0.000E+00   1.000E+00         -           -           -  
    57           0     28.0000      0.0000     -7.6000   4.000E+00   2.000E-02   0.000E+00   0.000E+00           T           F   0.000E+00   1.200E+00   1.000E+00   1.000E+00   1.000E+00   0.000E+00   0.000E+00   1.000E+00         -           -           -  
    58           0     28.0000      0.0000     -7.5000   4.000E+00   2.000E-02   0.000E+00   0.000E+00           T           F   0.000E+00   1.200E+00   1.000E+00   1.000E+00   1.000E+00   0.000E+00   0.000E+00   1.000E+00         -           -           -  
    59           0     28.0000      0.0000     -7.4000   4.000E+00   2.000E-02   0.000E+00   0.000E+00           T           F   0.000E+00   1.200E+00   1.000E+00   1.000E+00   1.000E+00   0.000E+00   0.000E+00   1.000E+00         -           -           -  
    60           0     28.0000      0.0000     -7.3000   4.000E+00   2.000E-02   0.000E+00   0.000E+00           T           F   0.000E+00   1.200E+00   1.000E+00   1.000E+00   1.000E+00   0.000E+00   0.000E+00   1.000E+00         -           -           -  
    61           0     28.0000      0.0000     -7.2000   4.000E+00   2.000E-02   0.000E+00   0.000E+00           T           F   0.000E+00   1.200E+00   1.000E+00   1.000E+00   1.000E+00   0.000E+00   0.000E+00   1.000E+00         -           -           -  
    62           0     28.0000      0.0000     -7.1000   4.000E+00   2.000E-02   0.000E+00   0.000E+00           T           F   0.000E+00   1.200E+00   1.000E+00   1.000E+00   1.000E+00   0.000E+00   0.000E+00   1.000E+00         -           -           -  
    63           0     28.0000      0.0000     -7.0000   4.000E+00   2.000E-02   0.000E+00   0.000E+00           T           F   0.000E+00   1.200E+00   1.000E+00   1.000E+00   1.000E+00   0.000E+00   0.000E+00   1.000E+00         -           -           -  
    64           0     28.0000      0.0000     -6.9000   4.000E+00   2.000E-02   0.000E+00   0.000E+00           T           F   0.000E+00   1.200E+00   1.000E+00   1.000E+00   1.000E+00   0.000E+00   0.000E+00   1.000E+00         -           -           -  
    65           0     28.0000      0.0000     -6.8000   4.000E+00   2.000E-02   0.000E+00   0.000E+00           T           F   0.000E+00   1.200E+00   1.000E+00   1.000E+00   1.000E+00   0.000E+00   0.000E+00   1.000E+00         -           -           -  
    66           0     28.0000      0.0000     -6.7000   4.000E+00   2.000E-02   0.000E+00   0.000E+00           T           F   0.000E+00   1.200E+00   1.000E+00   1.000E+00   1.000E+00   0.000E+00   0.000E+00   1.000E+00         -           -           -  
    67           0     28.0000      0.0000     -6.6000   4.000E+00   2.000E-02   0.000E+00   0.000E+00           T           F   0.000E+00   1.200E+00   1.000E+00   1.000E+00   1.000E+00   0.000E+00   0.000E+00   1.000E+00         -           -           -  
    68           0     28.0000      0.0000     -6.5000   4.000E+00   2.000E-02   0.000E+00   0.000E+00           T           F   0.000E+00   1.200E+00   1.000E+00   1.000E+00   1.000E+00   0.000E+00   0.000E+00   1.000E+00         -           -           -  
    69           0     28.0000      0.0000     -6.4000   4.000E+00   2.000E-02   0.000E+00   0.000E+00           T           F   0.000E+00   1.200E+00   1.000E+00   1.000E+00   1.000E+00   0.000E+00   0.000E+00   1.000E+00         -           -           -  
    70           0     28.0000      0.0000     -6.3000   4.000E+00   2.000E-02   0.000E+00   0.000E+00           T           F   0.000E+00   1.200E+00   1.000E+00   1.000E+00   1.000E+00   0.000E+00   0.000E+00   1.000E+00         -           -           -  
    71           0     28.0000      0.0000     -6.2000   4.000E+00   2.000E-02   0.000E+00   0.000E+00           T           F   0.000E+00   1.200E+00   1.000E+00   1.000E+00   1.000E+00   0.000E+00   0.000E+00   1.000E+00         -           -           -  
    72           0     28.0000      0.0000     -6.1000   4.000E+00   2.000E-02   0.000E+00   0.000E+00           T           F   0.000E+00   1.200E+00   1.000E+00   1.000E+00   1.000E+00   0.000E+00   0.000E+00   1.000E+00         -           -           -  
    73           0     28.0000      0.0000     -6.0000   4.000E+00   2.000E-02   0.000E+00   0.000E+00           T           F   0.000E+00   1.200E+00   1.000E+00   1.000E+00   1.000E+00   0.000E+00   0.000E+00   1.000E+00         -           -           -  
    74           0     28.0000      0.0000     -5.9000   4.000E+00   2.000E-02   0.000E+00   0.000E+00           T           F   0.000E+00   1.200E+00   1.000E+00   1.000E+00   1.000E+00   0.000E+00   0.000E+00   1.000E+00         -           -           -  
    75           0     28.0000      0.0000     -5.8000   4.000E+00   2.000E-02   0.000E+00   0.000E+00           T           F   0.000E+00   1.200E+00   1.000E+00   1.000E+00   1.000E+00   0.000E+00   0.000E+00   1.000E+00         -           -           -  
    76           0     28.0000      0.0000     -5.7000   4.000E+00   2.000E-02   0.000E+00   0.000E+00           T           F   0.000E+00   1.200E+00   1.000E+00   1.000E+00   1.000E+00   0.000E+00   0.000E+00   1.000E+00         -           -           -  
    77           0     28.0000      0.0000     -5.6000   4.000E+00   2.000E-02   0.000E+00   0.000E+00           T           F   0.000E+00   1.200E+00   1.000E+00   1.000E+00   1.000E+00   0.000E+00   0.000E+00   1.000E+00         -           -           -  
    78           0     28.0000      0.0000     -5.5000   4.000E+00   2.000E-02   0.000E+00   0.000E+00           T           F   0.000E+00   1.200E+00   1.000E+00   1.000E+00   1.000E+00   0.000E+00   0.000E+00   1.000E+00         -           -           -  
    79           0     28.0000      0.0000     -5.4000   4.000E+00   2.000E-02   0.000E+00   0.000E+00           T           F   0.000E+00   1.200E+00   1.000E+00   1.000E+00   1.000E+00   0.000E+00   0.000E+00   1.000E+00         -           -           -  
    80           0     28.0000      0.0000     -5.3000   4.000E+00   2.000E-02   0.000E+00   0.000E+00           T           F   0.000E+00   1.200E+00   1.000E+00   1.000E+00   1.000E+00   0.000E+00   0.000E+00   1.000E+00         -           -           -  
    81           0     28.0000      0.0000     -5.2000   4.000E+00   2.000E-02   0.000E+00   0.000E+00           T           F   0.000E+00   1.200E+00   1.000E+00   1.000E+00   1.000E+00   0.000E+00   0.000E+00   1.000E+00         -           -           -  
    82           0     28.0000      0.0000     -5.1000   4.000E+00   2.000E-02   0.000E+00   0.000E+00           T           F   0.000E+00   1.200E+00   1.000E+00   1.000E+00   1.000E+00   0.000E+00   0.000E+00   1.000E+00         -           -           -  
    83           0     28.0000      0.0000     -5.0000   4.000E+00   2.000E-02   0.000E+00   0.000E+00           T           F   0.000E+00   1.200E+00   1.000E+00   1.000E+00   1.000E+00   0.000E+00   0.000E+00   1.000E+00         -           -           -  
    84           0     28.0000      0.0000     -4.9000   4.000E+00   2.000E-02   0.000E+00   0.000E+00           T           F   0.000E+00   1.200E+00   1.000E+00   1.000E+00   1.000E+00   0.000E+00   0.000E+00   1.000E+00         -           -           -  
    85           0     28.0000      0.0000     -4.8000   4.000E+00   2.000E-02   0.000E+00   0.000E+00           T           F   0.000E+00   1.200E+00   1.000E+00   1.000E+00   1.000E+00   0.000E+00   0.000E+00   1.000E+00         -           -           -  
    86           0     28.0000      0.0000     -4.7000   4.000E+00   2.000E-02   0.000E+00   0.000E+00           T           F   0.000E+00   1.200E+00   1.000E+00   1.000E+00   1.000E+00   0.000E+00   0.000E+00   1.000E+00         -           -           -  
    87           0     28.0000      0.0000     -4.6000   4.000E+00   2.000E-02   0.000E+00   0.000E+00           T           F   0.000E+00   1.200E+00   1.000E+00   1.000E+00   1.000E+00   0.000E+00   0.000E+00   1.000E+00         -           -           -  
    88           0     28.0000      0.0000     -4.5000   4.000E+00   2.000E-02   0.000E+00   0.000E+00           T           F   0.000E+00   1.200E+00   1.000E+00   1.000E+00   1.000E+00   0.000E+00   0.000E+00   1.000E+00         -           -           -  
    89           0     28.0000      0.0000     -4.4000   4.000E+00   2.000E-02   0.000E+00   0.000E+00           T           F   0.000E+00   1.200E+00   1.000E+00   1.000E+00   1.000E+00   0.000E+00   0.000E+00   1.000E+00         -           -           -  
    90           0     28.0000      0.0000     -4.3000   4.000E+00   2.000E-02   0.000E+00   0.000E+00           T           F   0.000E+00   1.200E+00   1.000E+00   1.000E+00   1.000E+00   0.000E+00   0.000E+00   1.000E+00         -           -           -  
    91           0     28.0000      0.0000     -4.2000   4.000E+00   2.000E-02   0.000E+00   0.000E+00           T           F   0.000E+00   1.200E+00   1.000E+00   1.000E+00   1.000E+00   0.000E+00   0.000E+00   1.000E+00         -           -           -  
    92           0     28.0000      0.0000     -4.1000   4.000E+00   2.000E-02   0.000E+00   0.000E+00           T           F   0.000E+00   1.200E+00   1.000E+00   1.000E+00   1.000E+00   0.000E+00   0.000E+00   1.000E+00         -           -           -  
    93           0     28.0000      0.0000     -4.0000   4.000E+00   2.000E-02   0.000E+00   0.000E+00           T           F   0.000E+00   1.200E+00   1.000E+00   1.000E+00   1.000E+00   0.000E+00   0.000E+00   1.000E+00         -           -           -  
    94           0     28.0000      0.0000     -3.9000   4.000E+00   2.000E-02   0.000E+00   0.000E+00           T           F   0.000E+00   1.200E+00   1.000E+00   1.000E+00   1.000E+00   0.000E+00   0.000E+00   1.000E+00         -           -           -  
    95           0     28.0000      0.0000     -3.8000   4.000E+00   2.000E-02   0.000E+00   0.000E+00           T           F   0.000E+00   1.200E+00   1.000E+00   1.000E+00   1.000E+00   0.000E+00   0.000E+00   1.000E+00         -           -           -  
    96           0     28.0000      0.0000     -3.7000   4.000E+00   2.000E-02   0.000E+00   0.000E+00           T           F   0.000E+00   1.200E+00   1.000E+00   1.000E+00   1.000E+00   0.000E+00   0.000E+00   1.000E+00         -           -           -  
    97           0     28.0000      0.0000     -3.6000   4.000E+00   2.000E-02   0.000E+00   0.000E+00           T           F   0.000E+00   1.200E+00   1.000E+00   1.000E+00   1.000E+00   0.000E+00   0.000E+00   1.000E+00         -           -           -  
    98           0     28.0000      0.0000     -3.5000   4.000E+00   2.000E-02   0.000E+00   0.000E+00           T           F   0.000E+00   1.200E+00   1.000E+00   1.000E+00   1.000E+00   0.000E+00   0.000E+00   1.000E+00         -           -           -  
    99           0     28.0000      0.0000     -3.4000   4.000E+00   2.000E-02   0.000E+00   0.000E+00           T           F   0.000E+00   1.200E+00   1.000E+00   1.000E+00   1.000E+00   0.000E+00   0.000E+00   1.000E+00         -           -           -  
   100           0     28.0000      0.0000     -3.3000   4.000E+00   2.000E-02   0.000E+00   0.000E+00           T           F   0.000E+00   1.200E+00   1.000E+00   1.000E+00   1.000E+00   0.000E+00   0.000E+00   1.000E+00         -           -           -  
   101           0     28.0000      0.0000     -3.2000   4.000E+00   2.000E-02   0.000E+00   0.000E+00           T           F   0.000E+00   1.200E+00   1.000E+00   1.000E+00   1.000E+00   0.000E+00   0.000E+00   1.000E+00         -           -           -  
   102           0     28.0000      0.0000     -3.1000   4.000E+00   2.000E-02   0.000E+00   0.000E+00           T           F   0.000E+00   1.200E+00   1.000E+00   1.000E+00   1.000E+00   0.000E+00   0.000E+00   1.000E+00         -           -           -  
   103           0     28.0000      0.0000     -3.0000   4.000E+00   2.000E-02   0.000E+00   0.000E+00           T           F   0.000E+00   1.200E+00   1.000E+00   1.000E+00   1.000E+00   0.000E+00   0.000E+00   1.000E+00         -           -           -  
   104           0     28.0000      0.0000     -2.9000   4.000E+00   2.000E-02   0.000E+00   0.000E+00           T           F   0.000E+00   1.200E+00   1.000E+00   1.000E+00   1.000E+00   0.000E+00   0.000E+00   1.000E+00         -           -           -  
   105           0     28.0000      0.0000     -2.8000   4.000E+00   2.000E-02   0.000E+00   0.000E+00           T           F   0.000E+00   1.200E+00   1.000E+00   1.000E+00   1.000E+00   0.000E+00   0.000E+00   1.000E+00         -           -           -  
   106           0     28.0000      0.0000     -2.7000   4.000E+00   2.000E-02   0.000E+00   0.000E+00           T           F   0.000E+00   1.200E+00   1.000E+00   1.000E+00   1.000E+00   0.000E+00   0.000E+00   1.000E+00         -           -           -  
   107           0     28.0000      0.0000     -2.6000   4.000E+00   2.000E-02   0.000E+00   0.000E+00           T           F   0.000E+00   1.200E+00   1.000E+00   1.000E+00   1.000E+00   0.000E+00   0.000E+00   1.000E+00         -           -           -  
   108           0     28.0000      0.0000     -2.5000   4.000E+00   2.000E-02   0.000E+00   0.000E+00           T           F   0.000E+00   1.200E+00   1.000E+00   1.000E+00   1.000E+00   0.000E+00   0.000E+00   1.000E+00         -           -           -  
   109           0     28.0000      0.0000     -2.4000   4.000E+00   2.000E-02   0.000E+00   0.000E+00           T           F   0.000E+00   1.200E+00   1.000E+00   1.000E+00   1.000E+00   0.000E+00   0.000E+00   1.000E+00         -           -           -  
   110           0     28.0000      0.0000     -2.3000   4.000E+00   2.000E-02   0.000E+00   0.000E+00           T           F   0.000E+00   1.200E+00   1.000E+00   1.000E+00   1.000E+00   0.000E+00   0.000E+00   1.000E+00         -           -           -  
   111           0     28.0000      0.0000     -2.2000   4.000E+00   2.000E-02   0.000E+00   0.000E+00           T           F   0.000E+00   1.200E+00   1.000E+00   1.000E+00   1.000E+00   0.000E+00   0.000E+00   1.000E+00         -           -           -  
   112           0     28.0000      0.0000     -2.1000   4.000E+00   2.000E-02   0.000E+00   0.000E+00           T           F   0.000E+00   1.200E+00   1.000E+00   1.000E+00   1.000E+00   0.000E+00   0.000E+00   1.000E+00         -           -           -  
   113           0     28.0000      0.0000     -2.0000   4.000E+00   2.000E-02   0.000E+00   0.000E+00           T           F   0.000E+00   1.200E+00   1.000E+00   1.000E+00   1.000E+00   0.000E+00   0.000E+00   1.000E+00         -           -           -  
   114           0     28.0000      0.0000     -1.9000   4.000E+00   2.000E-02   0.000E+00   0.000E+00           T           F   0.000E+00   1.200E+00   1.000E+00   1.000E+00   1.000E+00   0.000E+00   0.000E+00   1.000E+00         -           -           -  
   115           0     28.0000      0.0000     -1.8000   4.000E+00   2.000E-02   0.000E+00   0.000E+00           T           F   0.000E+00   1.200E+00   1.000E+00   1.000E+00   1.000E+00   0.000E+00   0.000E+00   1.000E+00         -           -           -  
   116           0     28.0000      0.0000     -1.7000   4.000E+00   2.000E-02   0.000E+00   0.000E+00           T           F   0.000E+00   1.200E+00   1.000E+00   1.000E+00   1.000E+00   0.000E+00   0.000E+00   1.000E+00         -           -           -  
   117           0     28.0000      0.0000     -1.6000   4.000E+00   2.000E-02   0.000E+00   0.000E+00           T           F   0.000E+00   1.200E+00   1.000E+00   1.000E+00   1.000E+00   0.000E+00   0.000E+00   1.000E+00         -           -           -  
   118           0     28.0000      0.0000     -1.5000   4.000E+00   2.000E-02   0.000E+00   0.000E+00           T           F   0.000E+00   1.200E+00   1.000E+00   1.000E+00   1.000E+00   0.000E+00   0.000E+00   1.000E+00         -           -           -  
   119           0     28.0000      0.0000     -1.4000   4.000E+00   2.000E-02   0.000E+00   0.000E+00           T           F   0.000E+00   1.200E+00   1.000E+00   1.000E+00   1.000E+00   0.000E+00   0.000E+00   1.000E+00         -           -           -  
   120           0     28.0000      0.0000     -1.3000   4.000E+00   2.000E-02   0.000E+00   0.000E+00           T           F   0.000E+00   1.200E+00   1.000E+00   1.000E+00   1.000E+00   0.000E+00   0.000E+00   1.000E+00         -           -           -  
   121           0     28.0000      0.0000     -1.2000   4.000E+00   2.000E-02   0.000E+00   0.000E+00           T           F   0.000E+00   1.200E+00   1.000E+00   1.000E+00   1.000E+00   0.000E+00   0.000E+00   1.000E+00         -           -           -  
   122           0     28.0000      0.0000     -1.1000   4.000E+00   2.000E-02   0.000E+00   0.000E+00           T           F   0.000E+00   1.200E+00   1.000E+00   1.000E+00   1.000E+00   0.000E+00   0.000E+00   1.000E+00         -           -           -  
   123           0     28.0000      0.0000     -1.0000   4.000E+00   2.000E-02   0.000E+00   0.000E+00           T           F   0.000E+00   1.200E+00   1.000E+00   1.000E+00   1.000E+00   0.000E+00   0.000E+00   1.000E+00         -           -           -  
   124           0     28.0000      0.0000     -0.9000   4.000E+00   2.000E-02   0.000E+00   0.000E+00           T           F   0.000E+00   1.200E+00   1.000E+00   1.000E+00   1.000E+00   0.000E+00   0.000E+00   1.000E+00         -           -           -  
   125           0     28.0000      0.0000     -0.8000   4.000E+00   2.000E-02   0.000E+00   0.000E+00           T           F   0.000E+00   1.200E+00   1.000E+00   1.000E+00   1.000E+00   0.000E+00   0.000E+00   1.000E+00         -           -           -  
   126           0     28.0000      0.0000     -0.7000   4.000E+00   2.000E-02   0.000E+00   0.000E+00           T           F   0.000E+00   1.200E+00   1.000E+00   1.000E+00   1.000E+00   0.000E+00   0.000E+00   1.000E+00         -           -           -  
   127           0     28.0000      0.0000     -0.6000   4.000E+00   2.000E-02   0.000E+00   0.000E+00           T           F   0.000E+00   1.200E+00   1.000E+00   1.000E+00   1.000E+00   0.000E+00   0.000E+00   1.000E+00         -           -           -  
   128           0     28.0000      0.0000     -0.5000   4.000E+00   2.000E-02   0.000E+00   0.000E+00           T           F   0.000E+00   1.200E+00   1.000E+00   1.000E+00   1.000E+00   0.000E+00   0.000E+00   1.000E+00         -           -           -  
   129           0     28.0000      0.0000     -0.4000   4.000E+00   2.000E-02   0.000E+00   0.000E+00           T           F   0.000E+00   1.200E+00   1.000E+00   1.000E+00   1.000E+00   0.000E+00   0.000E+00   1.000E+00         -           -           -  
   130           0     28.0000      0.0000     -0.3000   4.000E+00   2.000E-02   0.000E+00   0.000E+00           T           F   0.000E+00   1.200E+00   1.000E+00   1.000E+00   1.000E+00   0.000E+00   0.000E+00   1.000E+00         -           -           -  
   131           0     28.0000      0.0000     -0.2000   4.000E+00   2.000E-02   0.000E+00   0.000E+00           T           F   0.000E+00   1.200E+00   1.000E+00   1.000E+00   1.000E+00   0.000E+00   0.000E+00   1.000E+00         -           -           -  
   132           0     28.0000      0.0000     -0.1000   4.000E+00   2.000E-02   0.000E+00   0.000E+00           T           F   0.000E+00   1.200E+00   1.000E+00   1.000E+00   1.000E+00   0.000E+00   0.000E+00   1.000E+00         -           -           -  
   133           0     28.0000      0.0000      0.0000   4.000E+00   2.000E-02   0.000E+00   0.000E+00           T           F   0.000E+00   1.200E+00   1.000E+00   1.000E+00   1.000E+00   0.000E+00   0.000E+00   1.000E+00         -           -           -  
   134           0     28.0000      0.0000      0.1000   4.000E+00   2.000E-02   0.000E+00   0.000E+00           T           F   0.000E+00   1.200E+00   1.000E+00   1.000E+00   1.000E+00   0.000E+00   0.000E+00   1.000E+00         -           -           -  
   135           0     28.0000      0.0000      0.2000   4.000E+00   2.000E-02   0.000E+00   0.000E+00           T           F   0.000E+00   1.200E+00   1.000E+00   1.000E+00   1.000E+00   0.000E+00   0.000E+00   1.000E+00         -           -           -  
   136           0     28.0000      0.0000      0.3000   4.000E+00   2.000E-02   0.000E+00   0.000E+00           T           F   0.000E+00   1.200E+00   1.000E+00   1.000E+00   1.000E+00   0.000E+00   0.000E+00   1.000E+00         -           -           -  
   137           0     28.0000      0.0000      0.4000   4.000E+00   2.000E-02   0.000E+00   0.000E+00           T           F   0.000E+00   1.200E+00   1.000E+00   1.000E+00   1.000E+00   0.000E+00   0.000E+00   1.000E+00         -           -           -  
   138           0     28.0000      0.0000      0.5000   4.000E+00   2.000E-02   0.000E+00   0.000E+00           T           F   0.000E+00   1.200E+00   1.000E+00   1.000E+00   1.000E+00   0.000E+00   0.000E+00   1.000E+00         -           -           -  
   139           0     28.0000      0.0000      0.6000   4.000E+00   2.000E-02   0.000E+00   0.000E+00           T           F   0.000E+00   1.200E+00   1.000E+00   1.000E+00   1.000E+00   0.000E+00   0.000E+00   1.000E+00         -           -           -  
   140           0     28.0000      0.0000      0.7000   4.000E+00   2.000E-02   0.000E+00   0.000E+00           T           F   0.000E+00   1.200E+00   1.000E+00   1.000E+00   1.000E+00   0.000E+00   0.000E+00   1.000E+00         -           -           -  
   141           0     28.0000      0.0000      0.8000   4.000E+00   2.000E-02   0.000E+00   0.000E+00           T           F   0.000E+00   1.200E+00   1.000E+00   1.000E+00   1.000E+00   0.000E+00   0.000E+00   1.000E+00         -           -           -  
   142           0     28.0000      0.0000      0.9000   4.000E+00   2.000E-02   0.000E+00   0.000E+00           T           F   0.000E+00   1.200E+00   1.000E+00   1.000E+00   1.000E+00   0.000E+00   0.000E+00   1.000E+00         -           -           -  
   143           0     28.0000      0.0000      1.0000   4.000E+00   2.000E-02   0.000E+00   0.000E+00           T           F   0.000E+00   1.200E+00   1.000E+00   1.000E+00   1.000E+00   0.000E+00   0.000E+00   1.000E+00         -           -           -  
   144           0     28.0000      0.0000      1.1000   4.000E+00   2.000E-02   0.000E+00   0.000E+00           T           F   0.000E+00   1.200E+00   1.000E+00   1.000E+00   1.000E+00   0.000E+00   0.000E+00   1.000E+00         -           -           -  
   145           0     28.0000      0.0000      1.2000   4.000E+00   2.000E-02   0.000E+00   0.000E+00           T           F   0.000E+00   1.200E+00   1.000E+00   1.000E+00   1.000E+00   0.000E+00   0.000E+00   1.000E+00         -           -           -  
   146           0     28.0000      0.0000      1.3000   4.000E+00   2.000E-02   0.000E+00   0.000E+00           T           F   0.000E+00   1.200E+00   1.000E+00   1.000E+00   1.000E+00   0.000E+00   0.000E+00   1.000E+00         -           -           -  
   147           0     28.0000      0.0000      1.4000   4.000E+00   2.000E-02   0.000E+00   0.000E+00           T           F   0.000E+00   1.200E+00   1.000E+00   1.000E+00   1.000E+00   0.000E+00   0.000E+00   1.000E+00         -           -           -  
   148           0     28.0000      0.0000      1.5000   4.000E+00   2.000E-02   0.000E+00   0.000E+00           T           F   0.000E+00   1.200E+00   1.000E+00   1.000E+00   1.000E+00   0.000E+00   0.000E+00   1.000E+00         -           -           -  
   149           0     28.0000      0.0000      1.6000   4.000E+00   2.000E-02   0.000E+00   0.000E+00           T           F   0.000E+00   1.200E+00   1.000E+00   1.000E+00   1.000E+00   0.000E+00   0.000E+00   1.000E+00         -           -           -  
   150           0     28.0000      0.0000      1.7000   4.000E+00   2.000E-02   0.000E+00   0.000E+00           T           F   0.000E+00   1.200E+00   1.000E+00   1.000E+00   1.000E+00   0.000E+00   0.000E+00   1.000E+00         -           -           -  
   151           0     28.0000      0.0000      1.8000   4.000E+00   2.000E-02   0.000E+00   0.000E+00           T           F   0.000E+00   1.200E+00   1.000E+00   1.000E+00   1.000E+00   0.000E+00   0.000E+00   1.000E+00         -           -           -  
   152           0     28.0000      0.0000      1.9000   4.000E+00   2.000E-02   0.000E+00   0.000E+00           T           F   0.000E+00   1.200E+00   1.000E+00   1.000E+00   1.000E+00   0.000E+00   0.000E+00   1.000E+00         -           -           -  
   153           0     28.0000      0.0000      2.0000   4.000E+00   2.000E-02   0.000E+00   0.000E+00           T           F   0.000E+00   1.200E+00   1.000E+00   1.000E+00   1.000E+00   0.000E+00   0.000E+00   1.000E+00         -           -           -  
   154           0     28.0000      0.0000      2.1000   4.000E+00   2.000E-02   0.000E+00   0.000E+00           T           F   0.000E+00   1.200E+00   1.000E+00   1.000E+00   1.000E+00   0.000E+00   0.000E+00   1.000E+00         -           -           -  
   155           0     28.0000      0.0000      2.2000   4.000E+00   2.000E-02   0.000E+00   0.000E+00           T           F   0.000E+00   1.200E+00   1.000E+00   1.000E+00   1.000E+00   0.000E+00   0.000E+00   1.000E+00         -           -           -  
   156           0     28.0000      0.0000      2.3000   4.000E+00   2.000E-02   0.000E+00   0.000E+00           T           F   0.000E+00   1.200E+00   1.000E+00   1.000E+00   1.000E+00   0.000E+00   0.000E+00   1.000E+00         -           -           -  
   157           0     28.0000      0.0000      2.4000   4.000E+00   2.000E-02   0.000E+00   0.000E+00           T           F   0.000E+00   1.200E+00   1.000E+00   1.000E+00   1.000E+00   0.000E+00   0.000E+00   1.000E+00         -           -           -  
   158           0     28.0000      0.0000      2.5000   4.000E+00   2.000E-02   0.000E+00   0.000E+00           T           F   0.000E+00   1.200E+00   1.000E+00   1.000E+00   1.000E+00   0.000E+00   0.000E+00   1.000E+00         -           -           -  
   159           0     28.0000      0.0000      2.6000   4.000E+00   2.000E-02   0.000E+00   0.000E+00           T           F   0.000E+00   1.200E+00   1.000E+00   1.000E+00   1.000E+00   0.000E+00   0.000E+00   1.000E+00         -           -           -  
   160           0     28.0000      0.0000      2.7000   4.000E+00   2.000E-02   0.000E+00   0.000E+00           T           F   0.000E+00   1.200E+00   1.000E+00   1.000E+00   1.000E+00   0.000E+00   0.000E+00   1.000E+00         -           -           -  
   161           0     28.0000      0.0000      2.8000   4.000E+00   2.000E-02   0.000E+00   0.000E+00           T           F   0.000E+00   1.200E+00   1.000E+00   1.000E+00   1.000E+00   0.000E+00   0.000E+00   1.000E+00         -           -           -  
   162           0     28.0000      0.0000      2.9000   4.000E+00   2.000E-02   0.000E+00   0.000E+00           T           F   0.000E+00   1.200E+00   1.000E+00   1.000E+00   1.000E+00   0.000E+00   0.000E+00   1.000E+00         -           -           -  
   163           0     28.0000      0.0000      3.0000   4.000E+00   2.000E-02   0.000E+00   0.000E+00           T           F   0.000E+00   1.200E+00   1.000E+00   1.000E+00   1.000E+00   0.000E+00   0.000E+00   1.000E+00         -           -           -  
   164           0     28.0000      0.0000      3.1000   4.000E+00   2.000E-02   0.000E+00   0.000E+00           T           F   0.000E+00   1.200E+00   1.000E+00   1.000E+00   1.000E+00   0.000E+00   0.000E+00   1.000E+00         -           -           -  
   165           0     28.0000      0.0000      3.2000   4.000E+00   2.000E-02   0.000E+00   0.000E+00           T           F   0.000E+00   1.200E+00   1.000E+00   1.000E+00   1.000E+00   0.000E+00   0.000E+00   1.000E+00         -           -           -  
   166           0     28.0000      0.0000      3.3000   4.000E+00   2.000E-02   0.000E+00   0.000E+00           T           F   0.000E+00   1.200E+00   1.000E+00   1.000E+00   1.000E+00   0.000E+00   0.000E+00   1.000E+00         -           -           -  
   167           0     28.0000      0.0000      3.4000   4.000E+00   2.000E-02   0.000E+00   0.000E+00           T           F   0.000E+00   1.200E+00   1.000E+00   1.000E+00   1.000E+00   0.000E+00   0.000E+00   1.000E+00         -           -           -  
   168           0     28.0000      0.0000      3.5000   4.000E+00   2.000E-02   0.000E+00   0.000E+00           T           F   0.000E+00   1.200E+00   1.000E+00   1.000E+00   1.000E+00   0.000E+00   0.000E+00   1.000E+00         -           -           -  
   169           0     28.0000      0.0000      3.6000   4.000E+00   2.000E-02   0.000E+00   0.000E+00           T           F   0.000E+00   1.200E+00   1.000E+00   1.000E+00   1.000E+00   0.000E+00   0.000E+00   1.000E+00         -           -           -  
   170           0     28.0000      0.0000      3.7000   4.000E+00   2.000E-02   0.000E+00   0.000E+00           T           F   0.000E+00   1.200E+00   1.000E+00   1.000E+00   1.000E+00   0.000E+00   0.000E+00   1.000E+00         -           -           -  
   171           0     28.0000      0.0000      3.8000   4.000E+00   2.000E-02   0.000E+00   0.000E+00           T           F   0.000E+00   1.200E+00   1.000E+00   1.000E+00   1.000E+00   0.000E+00   0.000E+00   1.000E+00         -           -           -  
   172           0     28.0000      0.0000      3.9000   4.000E+00   2.000E-02   0.000E+00   0.000E+00           T           F   0.000E+00   1.200E+00   1.000E+00   1.000E+00   1.000E+00   0.000E+00   0.000E+00   1.000E+00         -           -           -  
   173           0     28.0000      0.0000      4.0000   4.000E+00   2.000E-02   0.000E+00   0.000E+00           T           F   0.000E+00   1.200E+00   1.000E+00   1.000E+00   1.000E+00   0.000E+00   0.000E+00   1.000E+00         -           -           -  
   174           0     28.0000      0.0000      4.1000   4.000E+00   2.000E-02   0.000E+00   0.000E+00           T           F   0.000E+00   1.200E+00   1.000E+00   1.000E+00   1.000E+00   0.000E+00   0.000E+00   1.000E+00         -           -           -  
   175           0     28.0000      0.0000      4.2000   4.000E+00   2.000E-02   0.000E+00   0.000E+00           T           F   0.000E+00   1.200E+00   1.000E+00   1.000E+00   1.000E+00   0.000E+00   0.000E+00   1.000E+00         -           -           -  
   176           0     28.0000      0.0000      4.3000   4.000E+00   2.000E-02   0.000E+00   0.000E+00           T           F   0.000E+00   1.200E+00   1.000E+00   1.000E+00   1.000E+00   0.000E+00   0.000E+00   1.000E+00         -           -           -  
   177           0     28.0000      0.0000      4.4000   4.000E+00   2.000E-02   0.000E+00   0.000E+00           T           F   0.000E+00   1.200E+00   1.000E+00   1.000E+00   1.000E+00   0.000E+00   0.000E+00   1.000E+00         -           -           -  
   178           0     28.0000      0.0000      4.5000   4.000E+00   2.000E-02   0.000E+00   0.000E+00           T           F   0.000E+00   1.200E+00   1.000E+00   1.000E+00   1.000E+00   0.000E+00   0.000E+00   1.000E+00         -           -           -  
   179           0     28.0000      0.0000      4.6000   4.000E+00   2.000E-02   0.000E+00   0.000E+00           T           F   0.000E+00   1.200E+00   1.000E+00   1.000E+00   1.000E+00   0.000E+00   0.000E+00   1.000E+00         -           -           -  
   180           0     28.0000      0.0000      4.7000   4.000E+00   2.000E-02   0.000E+00   0.000E+00           T           F   0.000E+00   1.200E+00   1.000E+00   1.000E+00   1.000E+00   0.000E+00   0.000E+00   1.000E+00         -           -           -  
   181           0     28.0000      0.0000      4.8000   4.000E+00   2.000E-02   0.000E+00   0.000E+00           T           F   0.000E+00   1.200E+00   1.000E+00   1.000E+00   1.000E+00   0.000E+00   0.000E+00   1.000E+00         -           -           -  
   182           0     28.0000      0.0000      4.9000   4.000E+00   2.000E-02   0.000E+00   0.000E+00           T           F   0.000E+00   1.200E+00   1.000E+00   1.000E+00   1.000E+00   0.000E+00   0.000E+00   1.000E+00         -           -           -  
   183           0     28.0000      0.0000      5.0000   4.000E+00   2.000E-02   0.000E+00   0.000E+00           T           F   0.000E+00   1.200E+00   1.000E+00   1.000E+00   1.000E+00   0.000E+00   0.000E+00   1.000E+00         -           -           -  
   184           0     28.0000      0.0000      5.1000   4.000E+00   2.000E-02   0.000E+00   0.000E+00           T           F   0.000E+00   1.200E+00   1.000E+00   1.000E+00   1.000E+00   0.000E+00   0.000E+00   1.000E+00         -           -           -  
   185           0     28.0000      0.0000      5.2000   4.000E+00   2.000E-02   0.000E+00   0.000E+00           T           F   0.000E+00   1.200E+00   1.000E+00   1.000E+00   1.000E+00   0.000E+00   0.000E+00   1.000E+00         -           -           -  
   186           0     28.0000      0.0000      5.3000   4.000E+00   2.000E-02   0.000E+00   0.000E+00           T           F   0.000E+00   1.200E+00   1.000E+00   1.000E+00   1.000E+00   0.000E+00   0.000E+00   1.000E+00         -           -           -  
   187           0     28.0000      0.0000      5.4000   4.000E+00   2.000E-02   0.000E+00   0.000E+00           T           F   0.000E+00   1.200E+00   1.000E+00   1.000E+00   1.000E+00   0.000E+00   0.000E+00   1.000E+00         -           -           -  
   188           0     28.0000      0.0000      5.5000   4.000E+00   2.000E-02   0.000E+00   0.000E+00           T           F   0.000E+00   1.200E+00   1.000E+00   1.000E+00   1.000E+00   0.000E+00   0.000E+00   1.000E+00         -           -           -  
   189           0     28.0000      0.0000      5.6000   4.000E+00   2.000E-02   0.000E+00   0.000E+00           T           F   0.000E+00   1.200E+00   1.000E+00   1.000E+00   1.000E+00   0.000E+00   0.000E+00   1.000E+00         -           -           -  
   190           0     28.0000      0.0000      5.7000   4.000E+00   2.000E-02   0.000E+00   0.000E+00           T           F   0.000E+00   1.200E+00   1.000E+00   1.000E+00   1.000E+00   0.000E+00   0.000E+00   1.000E+00         -           -           -  
   191           0     28.0000      0.0000      5.8000   4.000E+00   2.000E-02   0.000E+00   0.000E+00           T           F   0.000E+00   1.200E+00   1.000E+00   1.000E+00   1.000E+00   0.000E+00   0.000E+00   1.000E+00         -           -           -  
   192           0     28.0000      0.0000      5.9000   4.000E+00   2.000E-02   0.000E+00   0.000E+00           T           F   0.000E+00   1.200E+00   1.000E+00   1.000E+00   1.000E+00   0.000E+00   0.000E+00   1.000E+00         -           -           -  
   193           1    -28.0000      0.0000     -9.9000   4.000E+00   2.000E-02   0.000E+00   0.000E+00           T           F   0.000E+00   1.200E+00   1.000E+00   1.000E+00   1.000E+00   0.000E+00   0.000E+00   1.000E+00         -           -           -  
   194           1    -28.0000      0.0000     -9.8000   4.000E+00   2.000E-02   0.000E+00   0.000E+00           T           F   0.000E+00   1.200E+00   1.000E+00   1.000E+00   1.000E+00   0.000E+00   0.000E+00   1.000E+00         -           -           -  
   195           1    -28.0000      0.0000     -9.7000   4.000E+00   2.000E-02   0.000E+00   0.000E+00           T           F   0.000E+00   1.200E+00   1.000E+00   1.000E+00   1.000E+00   0.000E+00   0.000E+00   1.000E+00         -           -           -  
   196           1    -28.0000      0.0000     -9.6000   4.000E+00   2.000E-02   0.000E+00   0.000E+00           T           F   0.000E+00   1.200E+00   1.000E+00   1.000E+00   1.000E+00   0.000E+00   0.000E+00   1.000E+00         -           -           -  
   197           1    -28.0000      0.0000     -9.5000   4.000E+00   2.000E-02   0.000E+00   0.000E+00           T           F   0.000E+00   1.200E+00   1.000E+00   1.000E+00   1.000E+00   0.000E+00   0.000E+00   1.000E+00         -           -           -  
   198           1    -28.0000      0.0000     -9.4000   4.000E+00   2.000E-02   0.000E+00   0.000E+00           T           F   0.000E+00   1.200E+00   1.000E+00   1.000E+00   1.000E+00   0.000E+00   0.000E+00   1.000E+00         -           -           -  
   199           1    -28.0000      0.0000     -9.3000   4.000E+00   2.000E-02   0.000E+00   0.000E+00           T           F   0.000E+00   1.200E+00   1.000E+00   1.000E+00   1.000E+00   0.000E+00   0.000E+00   1.000E+00         -           -           -  
   200           1    -28.0000      0.0000     -9.2000   4.000E+00   2.000E-02   0.000E+00   0.000E+00           T           F   0.000E+00   1.200E+00   1.000E+00   1.000E+00   1.000E+00   0.000E+00   0.000E+00   1.000E+00         -           -           -  
   201           1    -28.0000      0.0000     -9.1000   4.000E+00   2.000E-02   0.000E+00   0.000E+00           T           F   0.000E+00   1.200E+00   1.000E+00   1.000E+00   1.000E+00   0.000E+00   0.000E+00   1.000E+00         -           -           -  
   202           1    -28.0000      0.0000     -9.0000   4.000E+00   2.000E-02   0.000E+00   0.000E+00           T           F   0.000E+00   1.200E+00   1.000E+00   1.000E+00   1.000E+00   0.000E+00   0.000E+00   1.000E+00         -           -           -  
   203           1    -28.0000      0.0000     -8.9000   4.000E+00   2.000E-02   0.000E+00   0.000E+00           T           F   0.000E+00   1.200E+00   1.000E+00   1.000E+00   1.000E+00   0.000E+00   0.000E+00   1.000E+00         -           -           -  
   204           1    -28.0000      0.0000     -8.8000   4.000E+00   2.000E-02   0.000E+00   0.000E+00           T           F   0.000E+00   1.200E+00   1.000E+00   1.000E+00   1.000E+00   0.000E+00   0.000E+00   1.000E+00         -           -           -  
   205           1    -28.0000      0.0000     -8.7000   4.000E+00   2.000E-02   0.000E+00   0.000E+00           T           F   0.000E+00   1.200E+00   1.000E+00   1.000E+00   1.000E+00   0.000E+00   0.000E+00   1.000E+00         -           -           -  
   206           1    -28.0000      0.0000     -8.6000   4.000E+00   2.000E-02   0.000E+00   0.000E+00           T           F   0.000E+00   1.200E+00   1.000E+00   1.000E+00   1.000E+00   0.000E+00   0.000E+00   1.000E+00         -           -           -  
   207           1    -28.0000      0.0000     -8.5000   4.000E+00   2.000E-02   0.000E+00   0.000E+00           T           F   0.000E+00   1.200E+00   1.000E+00   1.000E+00   1.000E+00   0.000E+00   0.000E+00   1.000E+00         -           -           -  
   208           1    -28.0000      0.0000     -8.4000   4.000E+00   2.000E-02   0.000E+00   0.000E+00           T           F   0.000E+00   1.200E+00   1.000E+00   1.000E+00   1.000E+00   0.000E+00   0.000E+00   1.000E+00         -           -           -  
   209           1    -28.0000      0.0000     -8.3000   4.000E+00   2.000E-02   0.000E+00   0.000E+00           T           F   0.000E+00   1.200E+00   1.000E+00   1.000E+00   1.000E+00   0.000E+00   0.000E+00   1.000E+00         -           -           -  
   210           1    -28.0000      0.0000     -8.2000   4.000E+00   2.000E-02   0.000E+00   0.000E+00           T           F   0.000E+00   1.200E+00   1.000E+00   1.000E+00   1.000E+00   0.000E+00   0.000E+00   1.000E+00         -           -           -  
   211           1    -28.0000      0.0000     -8.1000   4.000E+00   2.000E-02   0.000E+00   0.000E+00           T           F   0.000E+00   1.200E+00   1.000E+00   1.000E+00   1.000E+00   0.000E+00   0.000E+00   1.000E+00         -           -           -  
   212           1    -28.0000      0.0000     -8.0000   4.000E+00   2.000E-02   0.000E+00   0.000E+00           T           F   0.000E+00   1.200E+00   1.000E+00   1.000E+00   1.000E+00   0.000E+00   0.000E+00   1.000E+00         -           -           -  
   213           1    -28.0000      0.0000     -7.9000   4.000E+00   2.000E-02   0.000E+00   0.000E+00           T           F   0.000E+00   1.200E+00   1.000E+00   1.000E+00   1.000E+00   0.000E+00   0.000E+00   1.000E+00         -           -           -  
   214           1    -28.0000      0.0000     -7.8000   4.000E+00   2.000E-02   0.000E+00   0.000E+00           T           F   0.000E+00   1.200E+00   1.000E+00   1.000E+00   1.000E+00   0.000E+00   0.000E+00   1.000E+00         -           -           -  
   215           1    -28.0000      0.0000     -7.7000   4.000E+00   2.000E-02   0.000E+00   0.000E+00           T           F   0.000E+00   1.200E+00   1.000E+00   1.000E+00   1.000E+00   0.000E+00   0.000E+00   1.000E+00         -           -           -  
   216           1    -28.0000      0.0000     -7.6000   4.000E+00   2.000E-02   0.000E+00   0.000E+00           T           F   0.000E+00   1.200E+00   1.000E+00   1.000E+00   1.000E+00   0.000E+00   0.000E+00   1.000E+00         -           -           -  
   217           1    -28.0000      0.0000     -7.5000   4.000E+00   2.000E-02   0.000E+00   0.000E+00           T           F   0.000E+00   1.200E+00   1.000E+00   1.000E+00   1.000E+00   0.000E+00   0.000E+00   1.000E+00         -           -           -  
   218           1    -28.0000      0.0000     -7.4000   4.000E+00   2.000E-02   0.000E+00   0.000E+00           T           F   0.000E+00   1.200E+00   1.000E+00   1.000E+00   1.000E+00   0.000E+00   0.000E+00   1.000E+00         -           -           -  
   219           1    -28.0000      0.0000     -7.3000   4.000E+00   2.000E-02   0.000E+00   0.000E+00           T           F   0.000E+00   1.200E+00   1.000E+00   1.000E+00   1.000E+00   0.000E+00   0.000E+00   1.000E+00         -           -           -  
   220           1    -28.0000      0.0000     -7.2000   4.000E+00   2.000E-02   0.000E+00   0.000E+00           T           F   0.000E+00   1.200E+00   1.000E+00   1.000E+00   1.000E+00   0.000E+00   0.000E+00   1.000E+00         -           -           -  
   221           1    -28.0000      0.0000     -7.1000   4.000E+00   2.000E-02   0.000E+00   0.000E+00           T           F   0.000E+00   1.200E+00   1.000E+00   1.000E+00   1.000E+00   0.000E+00   0.000E+00   1.000E+00         -           -           -  
   222           1    -28.0000      0.0000     -7.0000   4.000E+00   2.000E-02   0.000E+00   0.000E+00           T           F   0.000E+00   1.200E+00   1.000E+00   1.000E+00   1.000E+00   0.000E+00   0.000E+00   1.000E+00         -           -           -  
   223           1    -28.0000      0.0000     -6.9000   4.000E+00   2.000E-02   0.000E+00   0.000E+00           T           F   0.000E+00   1.200E+00   1.000E+00   1.000E+00   1.000E+00   0.000E+00   0.000E+00   1.000E+00         -           -           -  
   224           1    -28.0000      0.0000     -6.8000   4.000E+00   2.000E-02   0.000E+00   0.000E+00           T           F   0.000E+00   1.200E+00   1.000E+00   1.000E+00   1.000E+00   0.000E+00   0.000E+00   1.000E+00         -           -           -  
   225           1    -28.0000      0.0000     -6.7000   4.000E+00   2.000E-02   0.000E+00   0.000E+00           T           F   0.000E+00   1.200E+00   1.000E+00   1.000E+00   1.000E+00   0.000E+00   0.000E+00   1.000E+00         -           -           -  
   226           1    -28.0000      0.0000     -6.6000   4.000E+00   2.000E-02   0.000E+00   0.000E+00           T           F   0.000E+00   1.200E+00   1.000E+00   1.000E+00   1.000E+00   0.000E+00   0.000E+00   1.000E+00         -           -           -  
   227           1    -28.0000      0.0000     -6.5000   4.000E+00   2.000E-02   0.000E+00   0.000E+00           T           F   0.000E+00   1.200E+00   1.000E+00   1.000E+00   1.000E+00   0.000E+00   0.000E+00   1.000E+00         -           -           -  
   228           1    -28.0000      0.0000     -6.4000   4.000E+00   2.000E-02   0.000E+00   0.000E+00           T           F   0.000E+00   1.200E+00   1.000E+00   1.000E+00   1.000E+00   0.000E+00   0.000E+00   1.000E+00         -           -           -  
   229           1    -28.0000      0.0000     -6.3000   4.000E+00   2.000E-02   0.000E+00   0.000E+00           T           F   0.000E+00   1.200E+00   1.000E+00   1.000E+00   1.000E+00   0.000E+00   0.000E+00   1.000E+00         -           -           -  
   230           1    -28.0000      0.0000     -6.2000   4.000E+00   2.000E-02   0.000E+00   0.000E+00           T           F   0.000E+00   1.200E+00   1.000E+00   1.000E+00   1.000E+00   0.000E+00   0.000E+00   1.000E+00         -           -           -  
   231           1    -28.0000      0.0000     -6.1000   4.000E+00   2.000E-02   0.000E+00   0.000E+00           T           F   0.000E+00   1.200E+00   1.000E+00   1.000E+00   1.000E+00   0.000E+00   0.000E+00   1.000E+00         -           -           -  
   232           1    -28.0000      0.0000     -6.0000   4.000E+00   2.000E-02   0.000E+00   0.000E+00           T           F   0.000E+00   1.200E+00   1.000E+00   1.000E+00   1.000E+00   0.000E+00   0.000E+00   1.000E+00         -           -           -  
   233           1    -28.0000      0.0000     -5.9000   4.000E+00   2.000E-02   0.000E+00   0.000E+00           T           F   0.000E+00   1.200E+00   1.000E+00   1.000E+00   1.000E+00   0.000E+00   0.000E+00   1.000E+00         -           -           -  
   234           1    -28.0000      0.0000     -5.8000   4.000E+00   2.000E-02   0.000E+00   0.000E+00           T           F   0.000E+00   1.200E+00   1.000E+00   1.000E+00   1.000E+00   0.000E+00   0.000E+00   1.000E+00         -           -           -  
   235           1    -28.0000      0.0000     -5.7000   4.000E+00   2.000E-02   0.000E+00   0.000E+00           T           F   0.000E+00   1.200E+00   1.000E+00   1.000E+00   1.000E+00   0.000E+00   0.000E+00   1.000E+00         -           -           -  
   236           1    -28.0000      0.0000     -5.6000   4.000E+00   2.000E-02   0.000E+00   0.000E+00           T           F   0.000E+00   1.200E+00   1.000E+00   1.000E+00   1.000E+00   0.000E+00   0.000E+00   1.000E+00         -           -           -  
   237           1    -28.0000      0.0000     -5.5000   4.000E+00   2.000E-02   0.000E+00   0.000E+00           T           F   0.000E+00   1.200E+00   1.000E+00   1.000E+00   1.000E+00   0.000E+00   0.000E+00   1.000E+00         -           -           -  
   238           1    -28.0000      0.0000     -5.4000   4.000E+00   2.000E-02   0.000E+00   0.000E+00           T           F   0.000E+00   1.200E+00   1.000E+00   1.000E+00   1.000E+00   0.000E+00   0.000E+00   1.000E+00         -           -           -  
   239           1    -28.0000      0.0000     -5.3000   4.000E+00   2.000E-02   0.000E+00   0.000E+00           T           F   0.000E+00   1.200E+00   1.000E+00   1.000E+00   1.000E+00   0.000E+00   0.000E+00   1.000E+00         -           -           -  
   240           1    -28.0000      0.0000     -5.2000   4.000E+00   2.000E-02   0.000E+00   0.000E+00           T           F   0.000E+00   1.200E+00   1.000E+00   1.000E+00   1.000E+00   0.000E+00   0.000E+00   1.000E+00         -           -           -  
   241           1    -28.0000      0.0000     -5.1000   4.000E+00   2.000E-02   0.000E+00   0.000E+00           T           F   0.000E+00   1.200E+00   1.000E+00   1.000E+00   1.000E+00   0.000E+00   0.000E+00   1.000E+00         -           -           -  
   242           1    -28.0000      0.0000     -5.0000   4.000E+00   2.000E-02   0.000E+00   0.000E+00           T           F   0.000E+00   1.200E+00   1.000E+00   1.000E+00   1.000E+00   0.000E+00   0.000E+00   1.000E+00         -           -           -  
   243           1    -28.0000      0.0000     -4.9000   4.000E+00   2.000E-02   0.000E+00   0.000E+00           T           F   0.000E+00   1.200E+00   1.000E+00   1.000E+00   1.000E+00   0.000E+00   0.000E+00   1.000E+00         -           -           -  
   244           1    -28.0000      0.0000     -4.8000   4.000E+00   2.000E-02   0.000E+00   0.000E+00           T           F   0.000E+00   1.200E+00   1.000E+00   1.000E+00   1.000E+00   0.000E+00   0.000E+00   1.000E+00         -           -           -  
   245           1    -28.0000      0.0000     -4.7000   4.000E+00   2.000E-02   0.000E+00   0.000E+00           T           F   0.000E+00   1.200E+00   1.000E+00   1.000E+00   1.000E+00   0.000E+00   0.000E+00   1.000E+00         -           -           -  
   246           1    -28.0000      0.0000     -4.6000   4.000E+00   2.000E-02   0.000E+00   0.000E+00           T           F   0.000E+00   1.200E+00   1.000E+00   1.000E+00   1.000E+00   0.000E+00   0.000E+00   1.000E+00         -           -           -  
   247           1    -28.0000      0.0000     -4.5000   4.000E+00   2.000E-02   0.000E+00   0.000E+00           T           F   0.000E+00   1.200E+00   1.000E+00   1.000E+00   1.000E+00   0.000E+00   0.000E+00   1.000E+00         -           -           -  
   248           1    -28.0000      0.0000     -4.4000   4.000E+00   2.000E-02   0.000E+00   0.000E+00           T           F   0.000E+00   1.200E+00   1.000E+00   1.000E+00   1.000E+00   0.000E+00   0.000E+00   1.000E+00         -           -           -  
   249           1    -28.0000      0.0000     -4.3000   4.000E+00   2.000E-02   0.000E+00   0.000E+00           T           F   0.000E+00   1.200E+00   1.000E+00   1.000E+00   1.000E+00   0.000E+00   0.000E+00   1.000E+00         -           -           -  
   250           1    -28.0000      0.0000     -4.2000   4.000E+00   2.000E-02   0.000E+00   0.000E+00           T           F   0.000E+00   1.200E+00   1.000E+00   1.000E+00   1.000E+00   0.000E+00   0.000E+00   1.000E+00         -           -           -  
   251           1    -28.0000      0.0000     -4.1000   4.000E+00   2.000E-02   0.000E+00   0.000E+00           T           F   0.000E+00   1.200E+00   1.000E+00   1.000E+00   1.000E+00   0.000E+00   0.000E+00   1.000E+00         -           -           -  
   252           1    -28.0000      0.0000     -4.0000   4.000E+00   2.000E-02   0.000E+00   0.000E+00           T           F   0.000E+00   1.200E+00   1.000E+00   1.000E+00   1.000E+00   0.000E+00   0.000E+00   1.000E+00         -           -           -  
   253           1    -28.0000      0.0000     -3.9000   4.000E+00   2.000E-02   0.000E+00   0.000E+00           T           F   0.000E+00   1.200E+00   1.000E+00   1.000E+00   1.000E+00   0.000E+00   0.000E+00   1.000E+00         -           -           -  
   254           1    -28.0000      0.0000     -3.8000   4.000E+00   2.000E-02   0.000E+00   0.000E+00           T           F   0.000E+00   1.200E+00   1.000E+00   1.000E+00   1.000E+00   0.000E+00   0.000E+00   1.000E+00         -           -           -  
   255           1    -28.0000      0.0000     -3.7000   4.000E+00   2.000E-02   0.000E+00   0.000E+00           T           F   0.000E+00   1.200E+00   1.000E+00   1.000E+00   1.000E+00   0.000E+00   0.000E+00   1.000E+00         -           -           -  
   256           1    -28.0000      0.0000     -3.6000   4.000E+00   2.000E-02   0.000E+00   0.000E+00           T           F   0.000E+00   1.200E+00   1.000E+00   1.000E+00   1.000E+00   0.000E+00   0.000E+00   1.000E+00         -           -           -  
   257           1    -28.0000      0.0000     -3.5000   4.000E+00   2.000E-02   0.000E+00   0.000E+00           T           F   0.000E+00   1.200E+00   1.000E+00   1.000E+00   1.000E+00   0.000E+00   0.000E+00   1.000E+00         -           -           -  
   258           1    -28.0000      0.0000     -3.4000   4.000E+00   2.000E-02   0.000E+00   0.000E+00           T           F   0.000E+00   1.200E+00   1.000E+00   1.000E+00   1.000E+00   0.000E+00   0.000E+00   1.000E+00         -           -           -  
   259           1    -28.0000      0.0000     -3.3000   4.000E+00   2.000E-02   0.000E+00   0.000E+00           T           F   0.000E+00   1.200E+00   1.000E+00   1.000E+00   1.000E+00   0.000E+00   0.000E+00   1.000E+00         -           -           -  
   260           1    -28.0000      0.0000     -3.2000   4.000E+00   2.000E-02   0.000E+00   0.000E+00           T           F   0.000E+00   1.200E+00   1.000E+00   1.000E+00   1.000E+00   0.000E+00   0.000E+00   1.000E+00         -           -           -  
   261           1    -28.0000      0.0000     -3.1000   4.000E+00   2.000E-02   0.000E+00   0.000E+00           T           F   0.000E+00   1.200E+00   1.000E+00   1.000E+00   1.000E+00   0.000E+00   0.000E+00   1.000E+00         -           -           -  
   262           1    -28.0000      0.0000     -3.0000   4.000E+00   2.000E-02   0.000E+00   0.000E+00           T           F   0.000E+00   1.200E+00   1.000E+00   1.000E+00   1.000E+00   0.000E+00   0.000E+00   1.000E+00         -           -           -  
   263           1    -28.0000      0.0000     -2.9000   4.000E+00   2.000E-02   0.000E+00   0.000E+00           T           F   0.000E+00   1.200E+00   1.000E+00   1.000E+00   1.000E+00   0.000E+00   0.000E+00   1.000E+00         -           -           -  
   264           1    -28.0000      0.0000     -2.8000   4.000E+00   2.000E-02   0.000E+00   0.000E+00           T           F   0.000E+00   1.200E+00   1.000E+00   1.000E+00   1.000E+00   0.000E+00   0.000E+00   1.000E+00         -           -           -  
   265           1    -28.0000      0.0000     -2.7000   4.000E+00   2.000E-02   0.000E+00   0.000E+00           T           F   0.000E+00   1.200E+00   1.000E+00   1.000E+00   1.000E+00   0.000E+00   0.000E+00   1.000E+00         -           -           -  
   266           1    -28.0000      0.0000     -2.6000   4.000E+00   2.000E-02   0.000E+00   0.000E+00           T           F   0.000E+00   1.200E+00   1.000E+00   1.000E+00   1.000E+00   0.000E+00   0.000E+00   1.000E+00         -           -           -  
   267           1    -28.0000      0.0000     -2.5000   4.000E+00   2.000E-02   0.000E+00   0.000E+00           T           F   0.000E+00   1.200E+00   1.000E+00   1.000E+00   1.000E+00   0.000E+00   0.000E+00   1.000E+00         -           -           -  
   268           1    -28.0000      0.0000     -2.4000   4.000E+00   2.000E-02   0.000E+00   0.000E+00           T           F   0.000E+00   1.200E+00   1.000E+00   1.000E+00   1.000E+00   0.000E+00   0.000E+00   1.000E+00         -           -           -  
   269           1    -28.0000      0.0000     -2.3000   4.000E+00   2.000E-02   0.000E+00   0.000E+00           T           F   0.000E+00   1.200E+00   1.000E+00   1.000E+00   1.000E+00   0.000E+00   0.000E+00   1.000E+00         -           -           -  
   270           1    -28.0000      0.0000     -2.2000   4.000E+00   2.000E-02   0.000E+00   0.000E+00           T           F   0.000E+00   1.200E+00   1.000E+00   1.000E+00   1.000E+00   0.000E+00   0.000E+00   1.000E+00         -           -           -  
   271           1    -28.0000      0.0000     -2.1000   4.000E+00   2.000E-02   0.000E+00   0.000E+00           T           F   0.000E+00   1.200E+00   1.000E+00   1.000E+00   1.000E+00   0.000E+00   0.000E+00   1.000E+00         -           -           -  
   272           1    -28.0000      0.0000     -2.0000   4.000E+00   2.000E-02   0.000E+00   0.000E+00           T           F   0.000E+00   1.200E+00   1.000E+00   1.000E+00   1.000E+00   0.000E+00   0.000E+00   1.000E+00         -           -           -  
   273           1    -28.0000      0.0000     -1.9000   4.000E+00   2.000E-02   0.000E+00   0.000E+00           T           F   0.000E+00   1.200E+00   1.000E+00   1.000E+00   1.000E+00   0.000E+00   0.000E+00   1.000E+00         -           -           -  
   274           1    -28.0000      0.0000     -1.8000   4.000E+00   2.000E-02   0.000E+00   0.000E+00           T           F   0.000E+00   1.200E+00   1.000E+00   1.000E+00   1.000E+00   0.000E+00   0.000E+00   1.000E+00         -           -           -  
   275           1    -28.0000      0.0000     -1.7000   4.000E+00   2.000E-02   0.000E+00   0.000E+00           T           F   0.000E+00   1.200E+00   1.000E+00   1.000E+00   1.000E+00   0.000E+00   0.000E+00   1.000E+00         -           -           -  
   276           1    -28.0000      0.0000     -1.6000   4.000E+00   2.000E-02   0.000E+00   0.000E+00           T           F   0.000E+00   1.200E+00   1.000E+00   1.000E+00   1.000E+00   0.000E+00   0.000E+00   1.000E+00         -           -           -  
   277           1    -28.0000      0.0000     -1.5000   4.000E+00   2.000E-02   0.000E+00   0.000E+00           T           F   0.000E+00   1.200E+00   1.000E+00   1.000E+00   1.000E+00   0.000E+00   0.000E+00   1.000E+00         -           -           -  
   278           1    -28.0000      0.0000     -1.4000   4.000E+00   2.000E-02   0.000E+00   0.000E+00           T           F   0.000E+00   1.200E+00   1.000E+00   1.000E+00   1.000E+00   0.000E+00   0.000E+00   1.000E+00         -           -           -  
   279           1    -28.0000      0.0000     -1.3000   4.000E+00   2.000E-02   0.000E+00   0.000E+00           T           F   0.000E+00   1.200E+00   1.000E+00   1.000E+00   1.000E+00   0.000E+00   0.000E+00   1.000E+00         -           -           -  
   280           1    -28.0000      0.0000     -1.2000   4.000E+00   2.000E-02   0.000E+00   0.000E+00           T           F   0.000E+00   1.200E+00   1.000E+00   1.000E+00   1.000E+00   0.000E+00   0.000E+00   1.000E+00         -           -           -  
   281           1    -28.0000      0.0000     -1.1000   4.000E+00   2.000E-02   0.000E+00   0.000E+00           T           F   0.000E+00   1.200E+00   1.000E+00   1.000E+00   1.000E+00   0.000E+00   0.000E+00   1.000E+00         -           -           -  
   282           1    -28.0000      0.0000     -1.0000   4.000E+00   2.000E-02   0.000E+00   0.000E+00           T           F   0.000E+00   1.200E+00   1.000E+00   1.000E+00   1.000E+00   0.000E+00   0.000E+00   1.000E+00         -           -           -  
   283           1    -28.0000      0.0000     -0.9000   4.000E+00   2.000E-02   0.000E+00   0.000E+00           T           F   0.000E+00   1.200E+00   1.000E+00   1.000E+00   1.000E+00   0.000E+00   0.000E+00   1.000E+00         -           -           -  
   284           1    -28.0000      0.0000     -0.8000   4.000E+00   2.000E-02   0.000E+00   0.000E+00           T           F   0.000E+00   1.200E+00   1.000E+00   1.000E+00   1.000E+00   0.000E+00   0.000E+00   1.000E+00         -           -           -  
   285           1    -28.0000      0.0000     -0.7000   4.000E+00   2.000E-02   0.000E+00   0.000E+00           T           F   0.000E+00   1.200E+00   1.000E+00   1.000E+00   1.000E+00   0.000E+00   0.000E+00   1.000E+00         -           -           -  
   286           1    -28.0000      0.0000     -0.6000   4.000E+00   2.000E-02   0.000E+00   0.000E+00           T           F   0.000E+00   1.200E+00   1.000E+00   1.000E+00   1.000E+00   0.000E+00   0.000E+00   1.000E+00         -           -           -  
   287           1    -28.0000      0.0000     -0.5000   4.000E+00   2.000E-02   0.000E+00   0.000E+00           T           F   0.000E+00   1.200E+00   1.000E+00   1.000E+00   1.000E+00   0.000E+00   0.000E+00   1.000E+00         -           -           -  
   288           1    -28.0000      0.0000     -0.4000   4.000E+00   2.000E-02   0.000E+00   0.000E+00           T           F   0.000E+00   1.200E+00   1.000E+00   1.000E+00   1.000E+00   0.000E+00   0.000E+00   1.000E+00         -           -           -  
   289           1    -28.0000      0.0000     -0.3000   4.000E+00   2.000E-02   0.000E+00   0.000E+00           T           F   0.000E+00   1.200E+00   1.000E+00   1.000E+00   1.000E+00   0.000E+00   0.000E+00   1.000E+00         -           -           -  
   290           1    -28.0000      0.0000     -0.2000   4.000E+00   2.000E-02   0.000E+00   0.000E+00           T           F   0.000E+00   1.200E+00   1.000E+00   1.000E+00   1.000E+00   0.000E+00   0.000E+00   1.000E+00         -           -           -  
   291           1    -28.0000      0.0000     -0.1000   4.000E+00   2.000E-02   0.000E+00   0.000E+00           T           F   0.000E+00   1.200E+00   1.000E+00   1.000E+00   1.000E+00   0.000E+00   0.000E+00   1.000E+00         -           -           -  
   292           1    -28.0000      0.0000      0.0000   4.000E+00   2.000E-02   0.000E+00   0.000E+00           T           F   0.000E+00   1.200E+00   1.000E+00   1.000E+00   1.000E+00   0.000E+00   0.000E+00   1.000E+00         -           -           -  
   293           1    -28.0000      0.0000      0.1000   4.000E+00   2.000E-02   0.000E+00   0.000E+00           T           F   0.000E+00   1.200E+00   1.000E+00   1.000E+00   1.000E+00   0.000E+00   0.000E+00   1.000E+00         -           -           -  
   294           1    -28.0000      0.0000      0.2000   4.000E+00   2.000E-02   0.000E+00   0.000E+00           T           F   0.000E+00   1.200E+00   1.000E+00   1.000E+00   1.000E+00   0.000E+00   0.000E+00   1.000E+00         -           -           -  
[...]
       5952   0.59520E+02       1.64122E+04       0.00000E+00       0.00000E+00       0.00000E+00      -3.64513E+04       0.00000E+00       6.05184E+02       0.00000E+00       2.47433E+03       0.00000E+00       0.00000E+00      -9.47733E+01       0.00000E+00       0.00000E+00       0.00000E+00       8.77363E+03       0.00000E+00       0.00000E+00       8.65062E+04       0.00000E+00      -2.06594E+06
       5953   0.59530E+02       1.69489E+04       0.00000E+00       0.00000E+00       0.00000E+00      -3.74390E+04       0.00000E+00       6.43027E+02       0.00000E+00       2.52385E+03       0.00000E+00       0.00000E+00      -9.59929E+01       0.00000E+00       0.00000E+00       0.00000E+00       8.88538E+03       0.00000E+00       0.00000E+00       8.84581E+04       0.00000E+00       2.99134E+06
       5954   0.59540E+02       1.74812E+04       0.00000E+00       0.00000E+00       0.00000E+00      -3.84132E+04       0.00000E+00       6.82197E+02       0.00000E+00       2.57690E+03       0.00000E+00       0.00000E+00      -9.72253E+01       0.00000E+00       0.00000E+00       0.00000E+00       9.05011E+03       0.00000E+00       0.00000E+00       9.01591E+04       0.00000E+00       7.04905E+06
       5955   0.59550E+02       1.80051E+04       0.00000E+00       0.00000E+00       0.00000E+00      -3.93751E+04       0.00000E+00       7.20054E+02       0.00000E+00       2.62516E+03       0.00000E+00       0.00000E+00      -9.84639E+01       0.00000E+00       0.00000E+00       0.00000E+00       9.15784E+03       0.00000E+00       0.00000E+00       9.20589E+04       0.00000E+00       8.57402E+06
       5956   0.59560E+02       1.85239E+04       0.00000E+00       0.00000E+00       0.00000E+00      -4.03224E+04       0.00000E+00       7.59040E+02       0.00000E+00       2.67674E+03       0.00000E+00       0.00000E+00      -9.97133E+01       0.00000E+00       0.00000E+00       0.00000E+00       9.31977E+03       0.00000E+00       0.00000E+00       9.37069E+04       0.00000E+00       6.98981E+06
       5957   0.59570E+02       1.90335E+04       0.00000E+00       0.00000E+00       0.00000E+00      -4.12565E+04       0.00000E+00       7.96657E+02       0.00000E+00       2.72276E+03       0.00000E+00       0.00000E+00      -1.00963E+02       0.00000E+00       0.00000E+00       0.00000E+00       9.42270E+03       0.00000E+00       0.00000E+00       9.55505E+04       0.00000E+00       2.91639E+06
       5958   0.59580E+02       1.95375E+04       0.00000E+00       0.00000E+00       0.00000E+00      -4.21749E+04       0.00000E+00       8.35243E+02       0.00000E+00       2.77231E+03       0.00000E+00       0.00000E+00      -1.02224E+02       0.00000E+00       0.00000E+00       0.00000E+00       9.57918E+03       0.00000E+00       0.00000E+00       9.71421E+04       0.00000E+00      -2.08627E+06
       5959   0.59590E+02       2.00322E+04       0.00000E+00       0.00000E+00       0.00000E+00      -4.30795E+04       0.00000E+00       8.72414E+02       0.00000E+00       2.81634E+03       0.00000E+00       0.00000E+00      -1.03478E+02       0.00000E+00       0.00000E+00       0.00000E+00       9.67954E+03       0.00000E+00       0.00000E+00       9.89274E+04       0.00000E+00      -6.09358E+06
       5960   0.59600E+02       2.05211E+04       0.00000E+00       0.00000E+00       0.00000E+00      -4.39673E+04       0.00000E+00       9.10421E+02       0.00000E+00       2.86396E+03       0.00000E+00       0.00000E+00      -1.04740E+02       0.00000E+00       0.00000E+00       0.00000E+00       9.83108E+03       0.00000E+00       0.00000E+00       1.00458E+05       0.00000E+00      -7.57068E+06
       5961   0.59610E+02       2.10001E+04       0.00000E+00       0.00000E+00       0.00000E+00      -4.48402E+04       0.00000E+00       9.46878E+02       0.00000E+00       2.90557E+03       0.00000E+00       0.00000E+00      -1.05996E+02       0.00000E+00       0.00000E+00       0.00000E+00       9.92755E+03       0.00000E+00       0.00000E+00       1.02183E+05       0.00000E+00      -5.93856E+06
       5962   0.59620E+02       2.14727E+04       0.00000E+00       0.00000E+00       0.00000E+00      -4.56955E+04       0.00000E+00       9.84064E+02       0.00000E+00       2.95066E+03       0.00000E+00       0.00000E+00      -1.07257E+02       0.00000E+00       0.00000E+00       0.00000E+00       1.00741E+04       0.00000E+00       0.00000E+00       1.03652E+05       0.00000E+00      -1.81467E+06
       5963   0.59630E+02       2.19347E+04       0.00000E+00       0.00000E+00       0.00000E+00      -4.65349E+04       0.00000E+00       1.01963E+03       0.00000E+00       2.99025E+03       0.00000E+00       0.00000E+00      -1.08503E+02       0.00000E+00       0.00000E+00       0.00000E+00       1.01663E+04       0.00000E+00       0.00000E+00       1.05313E+05       0.00000E+00       3.24253E+06
       5964   0.59640E+02       2.23895E+04       0.00000E+00       0.00000E+00       0.00000E+00      -4.73557E+04       0.00000E+00       1.05583E+03       0.00000E+00       3.03309E+03       0.00000E+00       0.00000E+00      -1.09749E+02       0.00000E+00       0.00000E+00       0.00000E+00       1.03096E+04       0.00000E+00       0.00000E+00       1.06716E+05       0.00000E+00       7.30837E+06
       5965   0.59650E+02       2.28330E+04       0.00000E+00       0.00000E+00       0.00000E+00      -4.81604E+04       0.00000E+00       1.09029E+03       0.00000E+00       3.07016E+03       0.00000E+00       0.00000E+00      -1.10982E+02       0.00000E+00       0.00000E+00       0.00000E+00       1.03955E+04       0.00000E+00       0.00000E+00       1.08310E+05       0.00000E+00       8.84647E+06
       5966   0.59660E+02       2.32684E+04       0.00000E+00       0.00000E+00       0.00000E+00      -4.89453E+04       0.00000E+00       1.12529E+03       0.00000E+00       3.10989E+03       0.00000E+00       0.00000E+00      -1.12211E+02       0.00000E+00       0.00000E+00       0.00000E+00       1.05335E+04       0.00000E+00       0.00000E+00       1.09646E+05       0.00000E+00       7.27493E+06
       5967   0.59670E+02       2.36921E+04       0.00000E+00       0.00000E+00       0.00000E+00      -4.97133E+04       0.00000E+00       1.15848E+03       0.00000E+00       3.14499E+03       0.00000E+00       0.00000E+00      -1.13417E+02       0.00000E+00       0.00000E+00       0.00000E+00       1.06147E+04       0.00000E+00       0.00000E+00       1.11171E+05       0.00000E+00       3.20889E+06
       5968   0.59680E+02       2.41073E+04       0.00000E+00       0.00000E+00       0.00000E+00      -5.04610E+04       0.00000E+00       1.19211E+03       0.00000E+00       3.18293E+03       0.00000E+00       0.00000E+00      -1.14617E+02       0.00000E+00       0.00000E+00       0.00000E+00       1.07459E+04       0.00000E+00       0.00000E+00       1.12435E+05       0.00000E+00      -1.79534E+06
       5969   0.59690E+02       2.45106E+04       0.00000E+00       0.00000E+00       0.00000E+00      -5.11905E+04       0.00000E+00       1.22382E+03       0.00000E+00       3.21481E+03       0.00000E+00       0.00000E+00      -1.15797E+02       0.00000E+00       0.00000E+00       0.00000E+00       1.08229E+04       0.00000E+00       0.00000E+00       1.13890E+05       0.00000E+00      -5.81312E+06
       5970   0.59700E+02       2.49053E+04       0.00000E+00       0.00000E+00       0.00000E+00      -5.18991E+04       0.00000E+00       1.25598E+03       0.00000E+00       3.25001E+03       0.00000E+00       0.00000E+00      -1.16967E+02       0.00000E+00       0.00000E+00       0.00000E+00       1.09500E+04       0.00000E+00       0.00000E+00       1.15083E+05       0.00000E+00      -7.30722E+06
       5971   0.59710E+02       2.52877E+04       0.00000E+00       0.00000E+00       0.00000E+00      -5.25890E+04       0.00000E+00       1.28607E+03       0.00000E+00       3.27943E+03       0.00000E+00       0.00000E+00      -1.18109E+02       0.00000E+00       0.00000E+00       0.00000E+00       1.10202E+04       0.00000E+00       0.00000E+00       1.16462E+05       0.00000E+00      -5.69341E+06
       5972   0.59720E+02       2.56611E+04       0.00000E+00       0.00000E+00       0.00000E+00      -5.32576E+04       0.00000E+00       1.31657E+03       0.00000E+00       3.31230E+03       0.00000E+00       0.00000E+00      -1.19237E+02       0.00000E+00       0.00000E+00       0.00000E+00       1.11411E+04       0.00000E+00       0.00000E+00       1.17578E+05       0.00000E+00      -1.58472E+06
       5973   0.59730E+02       2.60216E+04       0.00000E+00       0.00000E+00       0.00000E+00      -5.39064E+04       0.00000E+00       1.34491E+03       0.00000E+00       3.33889E+03       0.00000E+00       0.00000E+00      -1.20339E+02       0.00000E+00       0.00000E+00       0.00000E+00       1.12055E+04       0.00000E+00       0.00000E+00       1.18883E+05       0.00000E+00       3.46391E+06
       5974   0.59740E+02       2.63725E+04       0.00000E+00       0.00000E+00       0.00000E+00      -5.45331E+04       0.00000E+00       1.37365E+03       0.00000E+00       3.36896E+03       0.00000E+00       0.00000E+00      -1.21423E+02       0.00000E+00       0.00000E+00       0.00000E+00       1.13207E+04       0.00000E+00       0.00000E+00       1.19924E+05       0.00000E+00       7.52769E+06
       5975   0.59750E+02       2.67097E+04       0.00000E+00       0.00000E+00       0.00000E+00      -5.51398E+04       0.00000E+00       1.40013E+03       0.00000E+00       3.39324E+03       0.00000E+00       0.00000E+00      -1.22474E+02       0.00000E+00       0.00000E+00       0.00000E+00       1.13795E+04       0.00000E+00       0.00000E+00       1.21150E+05       0.00000E+00       9.06820E+06
       5976   0.59760E+02       2.70368E+04       0.00000E+00       0.00000E+00       0.00000E+00      -5.57237E+04       0.00000E+00       1.42699E+03       0.00000E+00       3.42084E+03       0.00000E+00       0.00000E+00      -1.23504E+02       0.00000E+00       0.00000E+00       0.00000E+00       1.14906E+04       0.00000E+00       0.00000E+00       1.22111E+05       0.00000E+00       7.49880E+06
       5977   0.59770E+02       2.73496E+04       0.00000E+00       0.00000E+00       0.00000E+00      -5.62869E+04       0.00000E+00       1.45154E+03       0.00000E+00       3.44250E+03       0.00000E+00       0.00000E+00      -1.24500E+02       0.00000E+00       0.00000E+00       0.00000E+00       1.15411E+04       0.00000E+00       0.00000E+00       1.23257E+05       0.00000E+00       3.43027E+06
       5978   0.59780E+02       2.76522E+04       0.00000E+00       0.00000E+00       0.00000E+00      -5.68269E+04       0.00000E+00       1.47631E+03       0.00000E+00       3.46743E+03       0.00000E+00       0.00000E+00      -1.25472E+02       0.00000E+00       0.00000E+00       0.00000E+00       1.16449E+04       0.00000E+00       0.00000E+00       1.24137E+05       0.00000E+00      -1.58361E+06
       5979   0.59790E+02       2.79407E+04       0.00000E+00       0.00000E+00       0.00000E+00      -5.73458E+04       0.00000E+00       1.49896E+03       0.00000E+00       3.48682E+03       0.00000E+00       0.00000E+00      -1.26405E+02       0.00000E+00       0.00000E+00       0.00000E+00       1.16903E+04       0.00000E+00       0.00000E+00       1.25201E+05       0.00000E+00      -5.61771E+06
       5980   0.59800E+02       2.82187E+04       0.00000E+00       0.00000E+00       0.00000E+00      -5.78408E+04       0.00000E+00       1.52166E+03       0.00000E+00       3.50925E+03       0.00000E+00       0.00000E+00      -1.27313E+02       0.00000E+00       0.00000E+00       0.00000E+00       1.17869E+04       0.00000E+00       0.00000E+00       1.26000E+05       0.00000E+00      -7.13189E+06
       5981   0.59810E+02       2.84827E+04       0.00000E+00       0.00000E+00       0.00000E+00      -5.83143E+04       0.00000E+00       1.54227E+03       0.00000E+00       3.52632E+03       0.00000E+00       0.00000E+00      -1.28182E+02       0.00000E+00       0.00000E+00       0.00000E+00       1.18268E+04       0.00000E+00       0.00000E+00       1.26980E+05       0.00000E+00      -5.53689E+06
       5982   0.59820E+02       2.87359E+04       0.00000E+00       0.00000E+00       0.00000E+00      -5.87636E+04       0.00000E+00       1.56305E+03       0.00000E+00       3.54662E+03       0.00000E+00       0.00000E+00      -1.29021E+02       0.00000E+00       0.00000E+00       0.00000E+00       1.19173E+04       0.00000E+00       0.00000E+00       1.27695E+05       0.00000E+00      -1.44118E+06
       5983   0.59830E+02       2.89745E+04       0.00000E+00       0.00000E+00       0.00000E+00      -5.91908E+04       0.00000E+00       1.58137E+03       0.00000E+00       3.56113E+03       0.00000E+00       0.00000E+00      -1.29818E+02       0.00000E+00       0.00000E+00       0.00000E+00       1.19500E+04       0.00000E+00       0.00000E+00       1.28590E+05       0.00000E+00       3.60338E+06
       5984   0.59840E+02       2.92017E+04       0.00000E+00       0.00000E+00       0.00000E+00      -5.95934E+04       0.00000E+00       1.59983E+03       0.00000E+00       3.57888E+03       0.00000E+00       0.00000E+00      -1.30583E+02       0.00000E+00       0.00000E+00       0.00000E+00       1.20340E+04       0.00000E+00       0.00000E+00       1.29218E+05       0.00000E+00       7.67138E+06
       5985   0.59850E+02       2.94139E+04       0.00000E+00       0.00000E+00       0.00000E+00      -5.99737E+04       0.00000E+00       1.61621E+03       0.00000E+00       3.59148E+03       0.00000E+00       0.00000E+00      -1.31303E+02       0.00000E+00       0.00000E+00       0.00000E+00       1.20599E+04       0.00000E+00       0.00000E+00       1.30027E+05       0.00000E+00       9.22138E+06
       5986   0.59860E+02       2.96142E+04       0.00000E+00       0.00000E+00       0.00000E+00      -6.03291E+04       0.00000E+00       1.63251E+03       0.00000E+00       3.60721E+03       0.00000E+00       0.00000E+00      -1.31985E+02       0.00000E+00       0.00000E+00       0.00000E+00       1.21371E+04       0.00000E+00       0.00000E+00       1.30569E+05       0.00000E+00       7.66107E+06
       5987   0.59870E+02       2.97995E+04       0.00000E+00       0.00000E+00       0.00000E+00      -6.06617E+04       0.00000E+00       1.64671E+03       0.00000E+00       3.61749E+03       0.00000E+00       0.00000E+00      -1.32624E+02       0.00000E+00       0.00000E+00       0.00000E+00       1.21563E+04       0.00000E+00       0.00000E+00       1.31291E+05       0.00000E+00       3.59673E+06
       5988   0.59880E+02       2.99728E+04       0.00000E+00       0.00000E+00       0.00000E+00      -6.09690E+04       0.00000E+00       1.66084E+03       0.00000E+00       3.63093E+03       0.00000E+00       0.00000E+00      -1.33225E+02       0.00000E+00       0.00000E+00       0.00000E+00       1.22252E+04       0.00000E+00       0.00000E+00       1.31745E+05       0.00000E+00      -1.42169E+06
       5989   0.59890E+02       3.01310E+04       0.00000E+00       0.00000E+00       0.00000E+00      -6.12535E+04       0.00000E+00       1.67285E+03       0.00000E+00       3.63938E+03       0.00000E+00       0.00000E+00      -1.33775E+02       0.00000E+00       0.00000E+00       0.00000E+00       1.22393E+04       0.00000E+00       0.00000E+00       1.32378E+05       0.00000E+00      -5.46914E+06
       5990   0.59900E+02       3.02776E+04       0.00000E+00       0.00000E+00       0.00000E+00      -6.15125E+04       0.00000E+00       1.68482E+03       0.00000E+00       3.65124E+03       0.00000E+00       0.00000E+00      -1.34285E+02       0.00000E+00       0.00000E+00       0.00000E+00       1.23023E+04       0.00000E+00       0.00000E+00       1.32742E+05       0.00000E+00      -7.00283E+06
       5991   0.59910E+02       3.04090E+04       0.00000E+00       0.00000E+00       0.00000E+00      -6.17482E+04       0.00000E+00       1.69464E+03       0.00000E+00       3.65739E+03       0.00000E+00       0.00000E+00      -1.34748E+02       0.00000E+00       0.00000E+00       0.00000E+00       1.23084E+04       0.00000E+00       0.00000E+00       1.33287E+05       0.00000E+00      -5.42860E+06
       5992   0.59920E+02       3.05286E+04       0.00000E+00       0.00000E+00       0.00000E+00      -6.19583E+04       0.00000E+00       1.70436E+03       0.00000E+00       3.66711E+03       0.00000E+00       0.00000E+00      -1.35167E+02       0.00000E+00       0.00000E+00       0.00000E+00       1.23638E+04       0.00000E+00       0.00000E+00       1.33561E+05       0.00000E+00      -1.35030E+06
       5993   0.59930E+02       3.06327E+04       0.00000E+00       0.00000E+00       0.00000E+00      -6.21449E+04       0.00000E+00       1.71206E+03       0.00000E+00       3.67161E+03       0.00000E+00       0.00000E+00      -1.35537E+02       0.00000E+00       0.00000E+00       0.00000E+00       1.23636E+04       0.00000E+00       0.00000E+00       1.34015E+05       0.00000E+00       3.68388E+06
       5994   0.59940E+02       3.07247E+04       0.00000E+00       0.00000E+00       0.00000E+00      -6.23060E+04       0.00000E+00       1.71955E+03       0.00000E+00       3.67957E+03       0.00000E+00       0.00000E+00      -1.35860E+02       0.00000E+00       0.00000E+00       0.00000E+00       1.24129E+04       0.00000E+00       0.00000E+00       1.34200E+05       0.00000E+00       7.74793E+06
       5995   0.59950E+02       3.08008E+04       0.00000E+00       0.00000E+00       0.00000E+00      -6.24430E+04       0.00000E+00       1.72511E+03       0.00000E+00       3.68216E+03       0.00000E+00       0.00000E+00      -1.36134E+02       0.00000E+00       0.00000E+00       0.00000E+00       1.24050E+04       0.00000E+00       0.00000E+00       1.34563E+05       0.00000E+00       9.29869E+06
       5996   0.59960E+02       3.08646E+04       0.00000E+00       0.00000E+00       0.00000E+00      -6.25545E+04       0.00000E+00       1.73047E+03       0.00000E+00       3.68811E+03       0.00000E+00       0.00000E+00      -1.36361E+02       0.00000E+00       0.00000E+00       0.00000E+00       1.24477E+04       0.00000E+00       0.00000E+00       1.34657E+05       0.00000E+00       7.73867E+06
       5997   0.59970E+02       3.09122E+04       0.00000E+00       0.00000E+00       0.00000E+00      -6.26420E+04       0.00000E+00       1.73381E+03       0.00000E+00       3.68912E+03       0.00000E+00       0.00000E+00      -1.36532E+02       0.00000E+00       0.00000E+00       0.00000E+00       1.24327E+04       0.00000E+00       0.00000E+00       1.34929E+05       0.00000E+00       3.67099E+06
       5998   0.59980E+02       3.09477E+04       0.00000E+00       0.00000E+00       0.00000E+00      -6.27040E+04       0.00000E+00       1.73722E+03       0.00000E+00       3.69323E+03       0.00000E+00       0.00000E+00      -1.36660E+02       0.00000E+00       0.00000E+00       0.00000E+00       1.24669E+04       0.00000E+00       0.00000E+00       1.34931E+05       0.00000E+00      -1.35843E+06
       5999   0.59990E+02       3.09675E+04       0.00000E+00       0.00000E+00       0.00000E+00      -6.27416E+04       0.00000E+00       1.73815E+03       0.00000E+00       3.69258E+03       0.00000E+00       0.00000E+00      -1.36732E+02       0.00000E+00       0.00000E+00       0.00000E+00       1.24466E+04       0.00000E+00       0.00000E+00       1.35112E+05       0.00000E+00      -5.42314E+06
       6000   0.60000E+02       3.09752E+04       0.00000E+00       0.00000E+00       0.00000E+00      -6.27536E+04       0.00000E+00       1.73926E+03       0.00000E+00       3.69510E+03       0.00000E+00       0.00000E+00      -1.36761E+02       0.00000E+00       0.00000E+00       0.00000E+00       1.24751E+04       0.00000E+00       0.00000E+00       1.35023E+05       0.00000E+00      -6.97792E+06

This summary file was closed on 07-May-2025 at 19:12:11.

